*SPEF "IEEE 1481-1998"
*DESIGN "design-name"
*DATE "Mon Feb 13 16:24:46 2012"
*VENDOR "ISPD 2012 Contest"
*PROGRAM "Benchmark Parasitic Generator"
*VERSION "0.0"
*DESIGN_FLOW "NETLIST_TYPE_VERILOG"
*DIVIDER /
*DELIMITER :
*BUS_DELIMITER [ ]
*T_UNIT 1 PS
*C_UNIT 1 FF
*R_UNIT 1 KOHM
*L_UNIT 1 UH


*D_NET c0dmabs_2611 12
*END

*D_NET c0dmabs_2612 16
*END

*D_NET c0dmabs_2613 12
*END

*D_NET c0dmabs_2614 16
*END

*D_NET c0dmabs_2615 16
*END

*D_NET c0dmabs_2616 16
*END

*D_NET c0dmabs_2617 16
*END

*D_NET c0dmabs_2618 16
*END

*D_NET c0dmabs_2619 16
*END

*D_NET c0dmabs_2620 16
*END

*D_NET c0dmabs_2621 16
*END

*D_NET c0dmabs_2622 16
*END

*D_NET c0llp 12
*END

*D_NET c0llp_1227 8
*END

*D_NET c0llp_1228 16
*END

*D_NET c0llp_1229 16
*END

*D_NET c0llp_1230 16
*END

*D_NET c0llp_1231 16
*END

*D_NET c0llp_1232 16
*END

*D_NET c0llp_1233 16
*END

*D_NET c0llp_1234 16
*END

*D_NET c0llp_1235 16
*END

*D_NET c0llp_1236 16
*END

*D_NET c0llp_1237 16
*END

*D_NET c0llp_1240 16
*END

*D_NET c0llp_1241 16
*END

*D_NET c0llp_1242 16
*END

*D_NET c0llp_1243 16
*END

*D_NET c0llp_1244 16
*END

*D_NET c0llp_1245 16
*END

*D_NET c0llp_1246 16
*END

*D_NET c0llp_1247 16
*END

*D_NET c0llp_1248 16
*END

*D_NET c0llp_1249 16
*END

*D_NET c0llp_1250 16
*END

*D_NET c0llp_1251 16
*END

*D_NET c0llp_1252 16
*END

*D_NET c0llp_1253 16
*END

*D_NET c0llp_1254 16
*END

*D_NET c0llp_1255 16
*END

*D_NET c0llp_1256 16
*END

*D_NET c0llp_1257 16
*END

*D_NET c0llpen 8
*END

*D_NET c0sad 4
*END

*D_NET c0sad_1165 4
*END

*D_NET c0sad_1166 4
*END

*D_NET c0sad_1167 4
*END

*D_NET c0sad_1168 4
*END

*D_NET c0sad_1169 4
*END

*D_NET c0sad_1170 4
*END

*D_NET c0sad_1171 4
*END

*D_NET c0sad_1172 12
*END

*D_NET c0sad_1173 12
*END

*D_NET c0sad_1174 4
*END

*D_NET c0sad_1175 12
*END

*D_NET c0sad_1176 12
*END

*D_NET c0sad_1177 4
*END

*D_NET c0sad_1178 12
*END

*D_NET c0sad_1179 12
*END

*D_NET c0sad_1180 4
*END

*D_NET c0sad_1181 4
*END

*D_NET c0sad_1182 4
*END

*D_NET c0sad_1183 4
*END

*D_NET c0sad_1184 4
*END

*D_NET c0sad_1185 4
*END

*D_NET c0sad_1186 4
*END

*D_NET c0sad_1187 4
*END

*D_NET c0sad_1188 4
*END

*D_NET c0sad_1189 12
*END

*D_NET c0sad_1190 12
*END

*D_NET c0sad_1191 12
*END

*D_NET c0sad_1192 12
*END

*D_NET c0sad_1193 12
*END

*D_NET c0sad_1194 12
*END

*D_NET c0sad_1195 4
*END

*D_NET c0tsz 12
*END

*D_NET c0tsz_1258 12
*END

*D_NET c0tsz_1259 12
*END

*D_NET c0tsz_1260 12
*END

*D_NET c0tsz_1261 12
*END

*D_NET c0tsz_1262 12
*END

*D_NET c0tsz_1263 12
*END

*D_NET c0tsz_1264 12
*END

*D_NET c0tsz_1265 12
*END

*D_NET c0tsz_1266 12
*END

*D_NET c0tsz_1267 12
*END

*D_NET c0tsz_1268 12
*END

*D_NET c1brbs 20
*END

*D_NET c1brbs_2653 16
*END

*D_NET c1brbs_2654 12
*END

*D_NET c1brbs_2655 12
*END

*D_NET c1brbs_2656 12
*END

*D_NET c1brbs_2657 16
*END

*D_NET c1brbs_2658 16
*END

*D_NET c1brbs_2659 16
*END

*D_NET c1brbs_2660 16
*END

*D_NET c1brbs_2661 16
*END

*D_NET c1brbs_2662 16
*END

*D_NET c1brbs_2663 16
*END

*D_NET c1brbs_2664 16
*END

*D_NET c1brbs_2665 16
*END

*D_NET c1brbs_2666 16
*END

*D_NET c1brbs_2667 16
*END

*D_NET c1cfg 12
*END

*D_NET c1cfg_1300 12
*END

*D_NET c1cfg_1301 12
*END

*D_NET c1cfg_1315 24
*END

*D_NET c1cfg_1316 20
*END

*D_NET c1cfg_1317 20
*END

*D_NET c1cfg_1318 16
*END

*D_NET c1csr 32
*END

*D_NET c1csr_1269 4
*END

*D_NET c1csr_1270 4
*END

*D_NET c1csr_1271 4
*END

*D_NET c1csr_1272 4
*END

*D_NET c1csr_1273 4
*END

*D_NET c1csr_1274 4
*END

*D_NET c1csr_1275 16
*END

*D_NET c1csr_1276 4
*END

*D_NET c1csr_1277 4
*END

*D_NET c1csr_1278 4
*END

*D_NET c1csr_1279 4
*END

*D_NET c1csr_1280 4
*END

*D_NET c1csr_1281 4
*END

*D_NET c1csr_1282 8
*END

*D_NET c1csr_1284 12
*END

*D_NET c1csr_1285 12
*END

*D_NET c1csr_1286 12
*END

*D_NET c1csr_1287 12
*END

*D_NET c1csr_1288 12
*END

*D_NET c1csr_1289 12
*END

*D_NET c1csr_1290 20
*END

*D_NET c1csr_1291 24
*END

*D_NET c1csr_1292 8
*END

*D_NET c1csr_1299 4
*END

*D_NET c1dad 4
*END

*D_NET c1dad_1362 4
*END

*D_NET c1dad_1363 4
*END

*D_NET c1dad_1364 12
*END

*D_NET c1dad_1365 12
*END

*D_NET c1dad_1366 12
*END

*D_NET c1dad_1367 12
*END

*D_NET c1dad_1368 12
*END

*D_NET c1dad_1369 4
*END

*D_NET c1dad_1370 12
*END

*D_NET c1dad_1371 4
*END

*D_NET c1dad_1372 12
*END

*D_NET c1dad_1373 4
*END

*D_NET c1dad_1374 4
*END

*D_NET c1dad_1375 4
*END

*D_NET c1dad_1376 4
*END

*D_NET c1dad_1377 4
*END

*D_NET c1dad_1378 4
*END

*D_NET c1dad_1379 4
*END

*D_NET c1dad_1380 4
*END

*D_NET c1dad_1381 12
*END

*D_NET c1dad_1382 12
*END

*D_NET c1dad_1383 12
*END

*D_NET c1dad_1384 12
*END

*D_NET c1dad_1385 12
*END

*D_NET c1dad_1386 12
*END

*D_NET c1dad_1387 12
*END

*D_NET c1dad_1388 12
*END

*D_NET c1dad_1389 12
*END

*D_NET c1dad_1390 12
*END

*D_NET c1dad_1391 12
*END

*D_NET c1dad_1392 12
*END

*D_NET c1dmabs 20
*END

*D_NET c1dmabs_2638 16
*END

*D_NET c1dmabs_2639 4
*END

*D_NET c1dmabs_2640 4
*END

*D_NET c1dmabs_2641 12
*END

*D_NET c1dmabs_2642 16
*END

*D_NET c1dmabs_2643 12
*END

*D_NET c1dmabs_2644 16
*END

*D_NET c1dmabs_2645 16
*END

*D_NET c1dmabs_2646 16
*END

*D_NET c1dmabs_2647 16
*END

*D_NET c1dmabs_2648 16
*END

*D_NET c1dmabs_2649 12
*END

*D_NET c1dmabs_2650 16
*END

*D_NET c1dmabs_2651 16
*END

*D_NET c1dmabs_2652 16
*END

*D_NET c1llp 12
*END

*D_NET c1llp_1393 8
*END

*D_NET c1llp_1394 16
*END

*D_NET c1llp_1395 16
*END

*D_NET c1llp_1396 16
*END

*D_NET c1llp_1397 16
*END

*D_NET c1llp_1398 16
*END

*D_NET c1llp_1399 16
*END

*D_NET c1llp_1400 16
*END

*D_NET c1llp_1401 16
*END

*D_NET c1llp_1402 16
*END

*D_NET c1llp_1403 16
*END

*D_NET c1llp_1406 12
*END

*D_NET c1llp_1407 8
*END

*D_NET c1llp_1408 16
*END

*D_NET c1llp_1409 16
*END

*D_NET c1llp_1410 16
*END

*D_NET c1llp_1411 16
*END

*D_NET c1llp_1412 16
*END

*D_NET c1llp_1413 16
*END

*D_NET c1llp_1414 16
*END

*D_NET c1llp_1415 16
*END

*D_NET c1llp_1416 16
*END

*D_NET c1llp_1417 16
*END

*D_NET c1llp_1418 16
*END

*D_NET c1llp_1419 16
*END

*D_NET c1llp_1420 16
*END

*D_NET c1llp_1421 16
*END

*D_NET c1llp_1422 16
*END

*D_NET c1llp_1423 16
*END

*D_NET c1llpen 8
*END

*D_NET c1sad 4
*END

*D_NET c1sad_1331 4
*END

*D_NET c1sad_1332 4
*END

*D_NET c1sad_1333 4
*END

*D_NET c1sad_1334 4
*END

*D_NET c1sad_1335 4
*END

*D_NET c1sad_1336 4
*END

*D_NET c1sad_1337 4
*END

*D_NET c1sad_1338 12
*END

*D_NET c1sad_1339 12
*END

*D_NET c1sad_1340 12
*END

*D_NET c1sad_1341 4
*END

*D_NET c1sad_1342 12
*END

*D_NET c1sad_1343 12
*END

*D_NET c1sad_1344 12
*END

*D_NET c1sad_1345 12
*END

*D_NET c1sad_1346 4
*END

*D_NET c1sad_1347 4
*END

*D_NET c1sad_1348 4
*END

*D_NET c1sad_1349 4
*END

*D_NET c1sad_1350 4
*END

*D_NET c1sad_1351 4
*END

*D_NET c1sad_1352 4
*END

*D_NET c1sad_1353 4
*END

*D_NET c1sad_1354 4
*END

*D_NET c1sad_1355 12
*END

*D_NET c1sad_1356 12
*END

*D_NET c1sad_1357 12
*END

*D_NET c1sad_1358 12
*END

*D_NET c1sad_1359 12
*END

*D_NET c1sad_1360 12
*END

*D_NET c1sad_1361 4
*END

*D_NET c1tsz 12
*END

*D_NET c1tsz_1424 12
*END

*D_NET c1tsz_1425 12
*END

*D_NET c1tsz_1426 12
*END

*D_NET c1tsz_1427 12
*END

*D_NET c1tsz_1428 12
*END

*D_NET c1tsz_1429 12
*END

*D_NET c1tsz_1430 12
*END

*D_NET c1tsz_1431 12
*END

*D_NET c1tsz_1432 12
*END

*D_NET c1tsz_1433 12
*END

*D_NET c1tsz_1434 12
*END

*D_NET c2brbs_2683 16
*END

*D_NET c2brbs_2684 12
*END

*D_NET c2brbs_2685 12
*END

*D_NET c2brbs_2686 12
*END

*D_NET c2brbs_2687 16
*END

*D_NET c2brbs_2688 16
*END

*D_NET c2brbs_2689 16
*END

*D_NET c2brbs_2690 16
*END

*D_NET c2brbs_2691 16
*END

*D_NET c2brbs_2692 16
*END

*D_NET c2brbs_2693 16
*END

*D_NET c2brbs_2694 16
*END

*D_NET c2brbs_2695 16
*END

*D_NET c2brbs_2696 16
*END

*D_NET c2brbs_2697 16
*END

*D_NET c2cfg 12
*END

*D_NET c2cfg_1466 12
*END

*D_NET c2cfg_1467 12
*END

*D_NET c2cfg_1481 24
*END

*D_NET c2cfg_1482 20
*END

*D_NET c2cfg_1483 20
*END

*D_NET c2cfg_1484 16
*END

*D_NET c2csr 32
*END

*D_NET c2csr_1435 4
*END

*D_NET c2csr_1436 4
*END

*D_NET c2csr_1437 4
*END

*D_NET c2csr_1438 4
*END

*D_NET c2csr_1439 4
*END

*D_NET c2csr_1440 4
*END

*D_NET c2csr_1441 16
*END

*D_NET c2csr_1442 4
*END

*D_NET c2csr_1443 4
*END

*D_NET c2csr_1444 4
*END

*D_NET c2csr_1445 4
*END

*D_NET c2csr_1446 4
*END

*D_NET c2csr_1447 4
*END

*D_NET c2csr_1448 8
*END

*D_NET c2csr_1450 12
*END

*D_NET c2csr_1451 12
*END

*D_NET c2csr_1452 12
*END

*D_NET c2csr_1453 12
*END

*D_NET c2csr_1454 12
*END

*D_NET c2csr_1455 12
*END

*D_NET c2csr_1457 20
*END

*D_NET c2csr_1458 8
*END

*D_NET c2csr_1465 4
*END

*D_NET c2dad 4
*END

*D_NET c2dad_1528 4
*END

*D_NET c2dad_1529 4
*END

*D_NET c2dad_1530 12
*END

*D_NET c2dad_1531 12
*END

*D_NET c2dad_1532 12
*END

*D_NET c2dad_1533 12
*END

*D_NET c2dad_1534 12
*END

*D_NET c2dad_1535 4
*END

*D_NET c2dad_1536 12
*END

*D_NET c2dad_1537 12
*END

*D_NET c2dad_1538 12
*END

*D_NET c2dad_1539 12
*END

*D_NET c2dad_1540 12
*END

*D_NET c2dad_1541 12
*END

*D_NET c2dad_1542 12
*END

*D_NET c2dad_1543 4
*END

*D_NET c2dad_1544 4
*END

*D_NET c2dad_1545 4
*END

*D_NET c2dad_1546 4
*END

*D_NET c2dad_1547 12
*END

*D_NET c2dad_1548 12
*END

*D_NET c2dad_1549 12
*END

*D_NET c2dad_1550 12
*END

*D_NET c2dad_1551 12
*END

*D_NET c2dad_1552 12
*END

*D_NET c2dad_1553 12
*END

*D_NET c2dad_1554 12
*END

*D_NET c2dad_1555 12
*END

*D_NET c2dad_1556 12
*END

*D_NET c2dad_1557 12
*END

*D_NET c2dad_1558 12
*END

*D_NET c2dmabs_2668 16
*END

*D_NET c2dmabs_2669 12
*END

*D_NET c2dmabs_2670 12
*END

*D_NET c2dmabs_2671 12
*END

*D_NET c2dmabs_2672 16
*END

*D_NET c2dmabs_2673 16
*END

*D_NET c2dmabs_2674 16
*END

*D_NET c2dmabs_2675 16
*END

*D_NET c2dmabs_2676 16
*END

*D_NET c2dmabs_2677 16
*END

*D_NET c2dmabs_2678 16
*END

*D_NET c2dmabs_2679 16
*END

*D_NET c2dmabs_2680 16
*END

*D_NET c2dmabs_2681 16
*END

*D_NET c2dmabs_2682 16
*END

*D_NET c2llp 12
*END

*D_NET c2llp_1559 8
*END

*D_NET c2llp_1560 16
*END

*D_NET c2llp_1561 16
*END

*D_NET c2llp_1562 16
*END

*D_NET c2llp_1563 16
*END

*D_NET c2llp_1564 16
*END

*D_NET c2llp_1565 16
*END

*D_NET c2llp_1566 16
*END

*D_NET c2llp_1567 16
*END

*D_NET c2llp_1568 16
*END

*D_NET c2llp_1569 16
*END

*D_NET c2llp_1570 8
*END

*D_NET c2llp_1571 4
*END

*D_NET c2llp_1572 16
*END

*D_NET c2llp_1574 16
*END

*D_NET c2llp_1575 16
*END

*D_NET c2llp_1576 16
*END

*D_NET c2llp_1577 16
*END

*D_NET c2llp_1578 16
*END

*D_NET c2llp_1579 16
*END

*D_NET c2llp_1580 16
*END

*D_NET c2llp_1581 16
*END

*D_NET c2llp_1582 16
*END

*D_NET c2llp_1583 16
*END

*D_NET c2llp_1584 16
*END

*D_NET c2llp_1585 16
*END

*D_NET c2llp_1586 16
*END

*D_NET c2llp_1587 16
*END

*D_NET c2llp_1588 16
*END

*D_NET c2llp_1589 16
*END

*D_NET c2llpen 8
*END

*D_NET c2sad 4
*END

*D_NET c2sad_1497 4
*END

*D_NET c2sad_1498 4
*END

*D_NET c2sad_1499 4
*END

*D_NET c2sad_1500 4
*END

*D_NET c2sad_1501 4
*END

*D_NET c2sad_1502 4
*END

*D_NET c2sad_1503 4
*END

*D_NET c2sad_1504 12
*END

*D_NET c2sad_1505 12
*END

*D_NET c2sad_1506 4
*END

*D_NET c2sad_1507 4
*END

*D_NET c2sad_1508 4
*END

*D_NET c2sad_1509 4
*END

*D_NET c2sad_1510 4
*END

*D_NET c2sad_1511 4
*END

*D_NET c2sad_1512 4
*END

*D_NET c2sad_1513 4
*END

*D_NET c2sad_1514 4
*END

*D_NET c2sad_1515 4
*END

*D_NET c2sad_1516 4
*END

*D_NET c2sad_1517 4
*END

*D_NET c2sad_1518 4
*END

*D_NET c2sad_1519 4
*END

*D_NET c2sad_1520 4
*END

*D_NET c2sad_1521 12
*END

*D_NET c2sad_1522 12
*END

*D_NET c2sad_1523 12
*END

*D_NET c2sad_1524 12
*END

*D_NET c2sad_1525 12
*END

*D_NET c2sad_1526 12
*END

*D_NET c2sad_1527 4
*END

*D_NET c2tsz 12
*END

*D_NET c2tsz_1590 12
*END

*D_NET c2tsz_1591 12
*END

*D_NET c2tsz_1592 12
*END

*D_NET c2tsz_1593 12
*END

*D_NET c2tsz_1594 12
*END

*D_NET c2tsz_1595 12
*END

*D_NET c2tsz_1596 12
*END

*D_NET c2tsz_1597 12
*END

*D_NET c2tsz_1598 12
*END

*D_NET c2tsz_1599 12
*END

*D_NET c2tsz_1600 12
*END

*D_NET c3brbs_2713 16
*END

*D_NET c3brbs_2714 12
*END

*D_NET c3brbs_2715 12
*END

*D_NET c3brbs_2716 12
*END

*D_NET c3brbs_2717 16
*END

*D_NET c3brbs_2718 16
*END

*D_NET c3brbs_2719 16
*END

*D_NET c3brbs_2720 16
*END

*D_NET c3brbs_2721 16
*END

*D_NET c3brbs_2722 16
*END

*D_NET c3brbs_2723 16
*END

*D_NET c3brbs_2724 16
*END

*D_NET c3brbs_2725 16
*END

*D_NET c3brbs_2726 16
*END

*D_NET c3brbs_2727 16
*END

*D_NET c3cfg 12
*END

*D_NET c3cfg_1632 12
*END

*D_NET c3cfg_1633 12
*END

*D_NET c3cfg_1647 24
*END

*D_NET c3cfg_1648 20
*END

*D_NET c3cfg_1649 20
*END

*D_NET c3cfg_1650 16
*END

*D_NET c3csr 32
*END

*D_NET c3csr_1601 4
*END

*D_NET c3csr_1602 4
*END

*D_NET c3csr_1603 4
*END

*D_NET c3csr_1604 4
*END

*D_NET c3csr_1605 4
*END

*D_NET c3csr_1606 4
*END

*D_NET c3csr_1607 16
*END

*D_NET c3csr_1608 4
*END

*D_NET c3csr_1609 4
*END

*D_NET c3csr_1610 4
*END

*D_NET c3csr_1611 4
*END

*D_NET c3csr_1612 4
*END

*D_NET c3csr_1613 4
*END

*D_NET c3csr_1614 8
*END

*D_NET c3csr_1616 12
*END

*D_NET c3csr_1617 12
*END

*D_NET c3csr_1618 12
*END

*D_NET c3csr_1619 12
*END

*D_NET c3csr_1620 12
*END

*D_NET c3csr_1621 12
*END

*D_NET c3csr_1622 20
*END

*D_NET c3csr_1623 24
*END

*D_NET c3csr_1624 8
*END

*D_NET c3csr_1631 4
*END

*D_NET c3dad 4
*END

*D_NET c3dad_1694 4
*END

*D_NET c3dad_1695 4
*END

*D_NET c3dad_1696 12
*END

*D_NET c3dad_1697 12
*END

*D_NET c3dad_1698 12
*END

*D_NET c3dad_1699 12
*END

*D_NET c3dad_1700 12
*END

*D_NET c3dad_1701 4
*END

*D_NET c3dad_1702 12
*END

*D_NET c3dad_1703 4
*END

*D_NET c3dad_1704 4
*END

*D_NET c3dad_1705 4
*END

*D_NET c3dad_1706 12
*END

*D_NET c3dad_1707 12
*END

*D_NET c3dad_1708 4
*END

*D_NET c3dad_1709 4
*END

*D_NET c3dad_1710 4
*END

*D_NET c3dad_1711 4
*END

*D_NET c3dad_1712 4
*END

*D_NET c3dad_1713 12
*END

*D_NET c3dad_1714 12
*END

*D_NET c3dad_1715 12
*END

*D_NET c3dad_1716 12
*END

*D_NET c3dad_1717 12
*END

*D_NET c3dad_1718 12
*END

*D_NET c3dad_1719 12
*END

*D_NET c3dad_1720 12
*END

*D_NET c3dad_1721 12
*END

*D_NET c3dad_1722 12
*END

*D_NET c3dad_1723 12
*END

*D_NET c3dad_1724 12
*END

*D_NET c3dmabs 20
*END

*D_NET c3dmabs_2698 16
*END

*D_NET c3dmabs_2699 12
*END

*D_NET c3dmabs_2700 12
*END

*D_NET c3dmabs_2701 12
*END

*D_NET c3dmabs_2702 16
*END

*D_NET c3dmabs_2703 16
*END

*D_NET c3dmabs_2704 16
*END

*D_NET c3dmabs_2705 16
*END

*D_NET c3dmabs_2706 16
*END

*D_NET c3dmabs_2707 16
*END

*D_NET c3dmabs_2708 16
*END

*D_NET c3dmabs_2709 16
*END

*D_NET c3dmabs_2710 16
*END

*D_NET c3dmabs_2711 16
*END

*D_NET c3dmabs_2712 16
*END

*D_NET c3llp 12
*END

*D_NET c3llp_1725 8
*END

*D_NET c3llp_1726 16
*END

*D_NET c3llp_1727 16
*END

*D_NET c3llp_1728 16
*END

*D_NET c3llp_1729 16
*END

*D_NET c3llp_1730 16
*END

*D_NET c3llp_1731 16
*END

*D_NET c3llp_1732 16
*END

*D_NET c3llp_1733 16
*END

*D_NET c3llp_1734 16
*END

*D_NET c3llp_1735 16
*END

*D_NET c3llp_1738 16
*END

*D_NET c3llp_1739 16
*END

*D_NET c3llp_1740 16
*END

*D_NET c3llp_1741 16
*END

*D_NET c3llp_1742 16
*END

*D_NET c3llp_1743 16
*END

*D_NET c3llp_1744 16
*END

*D_NET c3llp_1745 16
*END

*D_NET c3llp_1746 16
*END

*D_NET c3llp_1747 16
*END

*D_NET c3llp_1748 16
*END

*D_NET c3llp_1749 16
*END

*D_NET c3llp_1750 16
*END

*D_NET c3llp_1751 16
*END

*D_NET c3llp_1752 16
*END

*D_NET c3llp_1753 16
*END

*D_NET c3llp_1754 16
*END

*D_NET c3llp_1755 16
*END

*D_NET c3llpen 8
*END

*D_NET c3sad 4
*END

*D_NET c3sad_1663 4
*END

*D_NET c3sad_1664 4
*END

*D_NET c3sad_1665 4
*END

*D_NET c3sad_1666 4
*END

*D_NET c3sad_1667 4
*END

*D_NET c3sad_1668 4
*END

*D_NET c3sad_1669 4
*END

*D_NET c3sad_1670 12
*END

*D_NET c3sad_1671 12
*END

*D_NET c3sad_1672 12
*END

*D_NET c3sad_1673 12
*END

*D_NET c3sad_1674 12
*END

*D_NET c3sad_1675 4
*END

*D_NET c3sad_1676 4
*END

*D_NET c3sad_1677 12
*END

*D_NET c3sad_1678 4
*END

*D_NET c3sad_1679 4
*END

*D_NET c3sad_1680 4
*END

*D_NET c3sad_1681 4
*END

*D_NET c3sad_1682 4
*END

*D_NET c3sad_1683 4
*END

*D_NET c3sad_1684 4
*END

*D_NET c3sad_1685 4
*END

*D_NET c3sad_1686 4
*END

*D_NET c3sad_1687 12
*END

*D_NET c3sad_1688 12
*END

*D_NET c3sad_1689 12
*END

*D_NET c3sad_1690 12
*END

*D_NET c3sad_1691 12
*END

*D_NET c3sad_1692 12
*END

*D_NET c3sad_1693 4
*END

*D_NET c3tsz 12
*END

*D_NET c3tsz_1756 12
*END

*D_NET c3tsz_1757 12
*END

*D_NET c3tsz_1758 12
*END

*D_NET c3tsz_1759 12
*END

*D_NET c3tsz_1760 12
*END

*D_NET c3tsz_1761 12
*END

*D_NET c3tsz_1762 12
*END

*D_NET c3tsz_1763 12
*END

*D_NET c3tsz_1764 12
*END

*D_NET c3tsz_1765 12
*END

*D_NET c3tsz_1766 12
*END

*D_NET c4brbs 20
*END

*D_NET c4brbs_2743 16
*END

*D_NET c4brbs_2744 12
*END

*D_NET c4brbs_2745 12
*END

*D_NET c4brbs_2746 12
*END

*D_NET c4brbs_2747 16
*END

*D_NET c4brbs_2748 16
*END

*D_NET c4brbs_2749 16
*END

*D_NET c4brbs_2750 16
*END

*D_NET c4brbs_2751 16
*END

*D_NET c4brbs_2752 16
*END

*D_NET c4brbs_2753 16
*END

*D_NET c4brbs_2754 16
*END

*D_NET c4brbs_2755 16
*END

*D_NET c4brbs_2756 16
*END

*D_NET c4brbs_2757 16
*END

*D_NET c4cfg 12
*END

*D_NET c4cfg_1798 12
*END

*D_NET c4cfg_1799 12
*END

*D_NET c4cfg_1813 24
*END

*D_NET c4cfg_1814 20
*END

*D_NET c4cfg_1815 20
*END

*D_NET c4cfg_1816 16
*END

*D_NET c4csr 32
*END

*D_NET c4csr_1767 4
*END

*D_NET c4csr_1768 4
*END

*D_NET c4csr_1769 4
*END

*D_NET c4csr_1770 4
*END

*D_NET c4csr_1771 4
*END

*D_NET c4csr_1772 4
*END

*D_NET c4csr_1773 16
*END

*D_NET c4csr_1774 4
*END

*D_NET c4csr_1775 4
*END

*D_NET c4csr_1776 4
*END

*D_NET c4csr_1777 4
*END

*D_NET c4csr_1778 4
*END

*D_NET c4csr_1779 4
*END

*D_NET c4csr_1780 8
*END

*D_NET c4csr_1782 12
*END

*D_NET c4csr_1783 12
*END

*D_NET c4csr_1784 12
*END

*D_NET c4csr_1785 12
*END

*D_NET c4csr_1786 12
*END

*D_NET c4csr_1787 12
*END

*D_NET c4csr_1788 20
*END

*D_NET c4csr_1789 24
*END

*D_NET c4csr_1790 8
*END

*D_NET c4csr_1797 4
*END

*D_NET c4dad 4
*END

*D_NET c4dad_1860 8
*END

*D_NET c4dad_1861 8
*END

*D_NET c4dad_1862 12
*END

*D_NET c4dad_1863 12
*END

*D_NET c4dad_1864 12
*END

*D_NET c4dad_1865 12
*END

*D_NET c4dad_1866 12
*END

*D_NET c4dad_1867 8
*END

*D_NET c4dad_1868 12
*END

*D_NET c4dad_1869 12
*END

*D_NET c4dad_1870 12
*END

*D_NET c4dad_1871 12
*END

*D_NET c4dad_1872 12
*END

*D_NET c4dad_1873 12
*END

*D_NET c4dad_1874 12
*END

*D_NET c4dad_1875 8
*END

*D_NET c4dad_1876 8
*END

*D_NET c4dad_1877 8
*END

*D_NET c4dad_1878 8
*END

*D_NET c4dad_1879 12
*END

*D_NET c4dad_1880 12
*END

*D_NET c4dad_1881 12
*END

*D_NET c4dad_1882 12
*END

*D_NET c4dad_1883 12
*END

*D_NET c4dad_1884 12
*END

*D_NET c4dad_1885 12
*END

*D_NET c4dad_1886 12
*END

*D_NET c4dad_1887 12
*END

*D_NET c4dad_1888 12
*END

*D_NET c4dad_1889 12
*END

*D_NET c4dad_1890 12
*END

*D_NET c4dmabs 20
*END

*D_NET c4dmabs_2728 16
*END

*D_NET c4dmabs_2729 12
*END

*D_NET c4dmabs_2730 12
*END

*D_NET c4dmabs_2731 12
*END

*D_NET c4dmabs_2732 16
*END

*D_NET c4dmabs_2733 12
*END

*D_NET c4dmabs_2734 16
*END

*D_NET c4dmabs_2735 16
*END

*D_NET c4dmabs_2736 16
*END

*D_NET c4dmabs_2737 16
*END

*D_NET c4dmabs_2738 16
*END

*D_NET c4dmabs_2739 16
*END

*D_NET c4dmabs_2740 16
*END

*D_NET c4dmabs_2741 16
*END

*D_NET c4dmabs_2742 16
*END

*D_NET c4llp 12
*END

*D_NET c4llp_1891 8
*END

*D_NET c4llp_1892 16
*END

*D_NET c4llp_1893 16
*END

*D_NET c4llp_1894 16
*END

*D_NET c4llp_1895 16
*END

*D_NET c4llp_1896 16
*END

*D_NET c4llp_1897 16
*END

*D_NET c4llp_1898 16
*END

*D_NET c4llp_1899 16
*END

*D_NET c4llp_1900 16
*END

*D_NET c4llp_1901 16
*END

*D_NET c4llp_1902 16
*END

*D_NET c4llp_1903 16
*END

*D_NET c4llp_1904 16
*END

*D_NET c4llp_1905 16
*END

*D_NET c4llp_1906 16
*END

*D_NET c4llp_1907 16
*END

*D_NET c4llp_1908 16
*END

*D_NET c4llp_1909 16
*END

*D_NET c4llp_1910 16
*END

*D_NET c4llp_1911 16
*END

*D_NET c4llp_1912 16
*END

*D_NET c4llp_1913 16
*END

*D_NET c4llp_1914 16
*END

*D_NET c4llp_1915 16
*END

*D_NET c4llp_1916 16
*END

*D_NET c4llp_1917 16
*END

*D_NET c4llp_1918 16
*END

*D_NET c4llp_1919 16
*END

*D_NET c4llp_1920 16
*END

*D_NET c4llp_1921 16
*END

*D_NET c4llpen 8
*END

*D_NET c4sad 4
*END

*D_NET c4sad_1829 4
*END

*D_NET c4sad_1830 4
*END

*D_NET c4sad_1831 4
*END

*D_NET c4sad_1832 4
*END

*D_NET c4sad_1833 4
*END

*D_NET c4sad_1834 4
*END

*D_NET c4sad_1835 4
*END

*D_NET c4sad_1836 12
*END

*D_NET c4sad_1837 4
*END

*D_NET c4sad_1838 4
*END

*D_NET c4sad_1839 4
*END

*D_NET c4sad_1840 4
*END

*D_NET c4sad_1841 4
*END

*D_NET c4sad_1842 4
*END

*D_NET c4sad_1843 4
*END

*D_NET c4sad_1844 4
*END

*D_NET c4sad_1845 4
*END

*D_NET c4sad_1846 4
*END

*D_NET c4sad_1847 4
*END

*D_NET c4sad_1848 4
*END

*D_NET c4sad_1849 4
*END

*D_NET c4sad_1850 4
*END

*D_NET c4sad_1851 4
*END

*D_NET c4sad_1852 4
*END

*D_NET c4sad_1853 12
*END

*D_NET c4sad_1854 12
*END

*D_NET c4sad_1855 12
*END

*D_NET c4sad_1856 12
*END

*D_NET c4sad_1857 12
*END

*D_NET c4sad_1858 12
*END

*D_NET c4sad_1859 4
*END

*D_NET c4tsz 12
*END

*D_NET c4tsz_1922 12
*END

*D_NET c4tsz_1923 12
*END

*D_NET c4tsz_1924 12
*END

*D_NET c4tsz_1925 12
*END

*D_NET c4tsz_1926 12
*END

*D_NET c4tsz_1927 12
*END

*D_NET c4tsz_1928 12
*END

*D_NET c4tsz_1929 12
*END

*D_NET c4tsz_1930 12
*END

*D_NET c4tsz_1931 12
*END

*D_NET c4tsz_1932 12
*END

*D_NET c5brbs_2773 16
*END

*D_NET c5brbs_2774 12
*END

*D_NET c5brbs_2775 12
*END

*D_NET c5brbs_2776 12
*END

*D_NET c5brbs_2777 16
*END

*D_NET c5brbs_2778 16
*END

*D_NET c5brbs_2779 16
*END

*D_NET c5brbs_2780 16
*END

*D_NET c5brbs_2781 16
*END

*D_NET c5brbs_2782 16
*END

*D_NET c5brbs_2783 16
*END

*D_NET c5brbs_2784 16
*END

*D_NET c5brbs_2785 16
*END

*D_NET c5brbs_2786 16
*END

*D_NET c5brbs_2787 16
*END

*D_NET c5cfg 12
*END

*D_NET c5cfg_1964 12
*END

*D_NET c5cfg_1965 12
*END

*D_NET c5cfg_1979 24
*END

*D_NET c5cfg_1980 20
*END

*D_NET c5cfg_1981 20
*END

*D_NET c5cfg_1982 16
*END

*D_NET c5csr 32
*END

*D_NET c5csr_1933 4
*END

*D_NET c5csr_1934 4
*END

*D_NET c5csr_1935 4
*END

*D_NET c5csr_1936 4
*END

*D_NET c5csr_1937 4
*END

*D_NET c5csr_1938 4
*END

*D_NET c5csr_1939 16
*END

*D_NET c5csr_1940 4
*END

*D_NET c5csr_1941 4
*END

*D_NET c5csr_1942 4
*END

*D_NET c5csr_1943 4
*END

*D_NET c5csr_1944 4
*END

*D_NET c5csr_1945 4
*END

*D_NET c5csr_1946 8
*END

*D_NET c5csr_1948 12
*END

*D_NET c5csr_1949 12
*END

*D_NET c5csr_1950 12
*END

*D_NET c5csr_1951 12
*END

*D_NET c5csr_1952 12
*END

*D_NET c5csr_1953 12
*END

*D_NET c5csr_1954 24
*END

*D_NET c5csr_1955 20
*END

*D_NET c5csr_1956 8
*END

*D_NET c5csr_1963 4
*END

*D_NET c5dad 4
*END

*D_NET c5dad_2026 8
*END

*D_NET c5dad_2027 8
*END

*D_NET c5dad_2028 12
*END

*D_NET c5dad_2029 12
*END

*D_NET c5dad_2030 12
*END

*D_NET c5dad_2031 12
*END

*D_NET c5dad_2032 12
*END

*D_NET c5dad_2033 8
*END

*D_NET c5dad_2034 12
*END

*D_NET c5dad_2035 12
*END

*D_NET c5dad_2036 12
*END

*D_NET c5dad_2037 12
*END

*D_NET c5dad_2038 8
*END

*D_NET c5dad_2039 12
*END

*D_NET c5dad_2040 12
*END

*D_NET c5dad_2041 8
*END

*D_NET c5dad_2042 8
*END

*D_NET c5dad_2043 8
*END

*D_NET c5dad_2044 8
*END

*D_NET c5dad_2045 12
*END

*D_NET c5dad_2046 12
*END

*D_NET c5dad_2047 12
*END

*D_NET c5dad_2048 12
*END

*D_NET c5dad_2049 12
*END

*D_NET c5dad_2050 12
*END

*D_NET c5dad_2051 12
*END

*D_NET c5dad_2052 12
*END

*D_NET c5dad_2053 12
*END

*D_NET c5dad_2054 12
*END

*D_NET c5dad_2055 12
*END

*D_NET c5dad_2056 12
*END

*D_NET c5dmabs_2758 16
*END

*D_NET c5dmabs_2759 12
*END

*D_NET c5dmabs_2760 12
*END

*D_NET c5dmabs_2761 12
*END

*D_NET c5dmabs_2762 16
*END

*D_NET c5dmabs_2763 16
*END

*D_NET c5dmabs_2764 12
*END

*D_NET c5dmabs_2765 12
*END

*D_NET c5dmabs_2766 12
*END

*D_NET c5dmabs_2767 16
*END

*D_NET c5dmabs_2768 16
*END

*D_NET c5dmabs_2769 16
*END

*D_NET c5dmabs_2770 12
*END

*D_NET c5dmabs_2771 12
*END

*D_NET c5dmabs_2772 16
*END

*D_NET c5llp 12
*END

*D_NET c5llp_2057 8
*END

*D_NET c5llp_2058 16
*END

*D_NET c5llp_2059 16
*END

*D_NET c5llp_2060 16
*END

*D_NET c5llp_2061 16
*END

*D_NET c5llp_2062 16
*END

*D_NET c5llp_2063 16
*END

*D_NET c5llp_2064 16
*END

*D_NET c5llp_2065 16
*END

*D_NET c5llp_2066 16
*END

*D_NET c5llp_2067 16
*END

*D_NET c5llp_2068 16
*END

*D_NET c5llp_2069 16
*END

*D_NET c5llp_2070 16
*END

*D_NET c5llp_2071 16
*END

*D_NET c5llp_2072 16
*END

*D_NET c5llp_2073 16
*END

*D_NET c5llp_2074 16
*END

*D_NET c5llp_2075 16
*END

*D_NET c5llp_2076 16
*END

*D_NET c5llp_2077 16
*END

*D_NET c5llp_2078 16
*END

*D_NET c5llp_2079 16
*END

*D_NET c5llp_2080 16
*END

*D_NET c5llp_2081 16
*END

*D_NET c5llp_2082 16
*END

*D_NET c5llp_2083 16
*END

*D_NET c5llp_2084 16
*END

*D_NET c5llp_2085 16
*END

*D_NET c5llp_2086 16
*END

*D_NET c5llp_2087 16
*END

*D_NET c5llpen 8
*END

*D_NET c5sad 4
*END

*D_NET c5sad_1995 4
*END

*D_NET c5sad_1996 4
*END

*D_NET c5sad_1997 4
*END

*D_NET c5sad_1998 4
*END

*D_NET c5sad_1999 4
*END

*D_NET c5sad_2000 4
*END

*D_NET c5sad_2001 4
*END

*D_NET c5sad_2002 12
*END

*D_NET c5sad_2003 4
*END

*D_NET c5sad_2004 4
*END

*D_NET c5sad_2005 4
*END

*D_NET c5sad_2006 4
*END

*D_NET c5sad_2007 12
*END

*D_NET c5sad_2008 4
*END

*D_NET c5sad_2009 4
*END

*D_NET c5sad_2010 4
*END

*D_NET c5sad_2011 4
*END

*D_NET c5sad_2012 4
*END

*D_NET c5sad_2013 4
*END

*D_NET c5sad_2014 4
*END

*D_NET c5sad_2015 4
*END

*D_NET c5sad_2016 4
*END

*D_NET c5sad_2017 4
*END

*D_NET c5sad_2018 4
*END

*D_NET c5sad_2019 12
*END

*D_NET c5sad_2020 12
*END

*D_NET c5sad_2021 12
*END

*D_NET c5sad_2022 12
*END

*D_NET c5sad_2023 12
*END

*D_NET c5sad_2024 12
*END

*D_NET c5sad_2025 4
*END

*D_NET c5tsz 12
*END

*D_NET c5tsz_2088 12
*END

*D_NET c5tsz_2089 12
*END

*D_NET c5tsz_2090 12
*END

*D_NET c5tsz_2091 12
*END

*D_NET c5tsz_2092 12
*END

*D_NET c5tsz_2093 12
*END

*D_NET c5tsz_2094 12
*END

*D_NET c5tsz_2095 12
*END

*D_NET c5tsz_2096 12
*END

*D_NET c5tsz_2097 12
*END

*D_NET c5tsz_2098 12
*END

*D_NET c6brbs 20
*END

*D_NET c6brbs_2803 16
*END

*D_NET c6brbs_2804 12
*END

*D_NET c6brbs_2805 12
*END

*D_NET c6brbs_2806 12
*END

*D_NET c6brbs_2807 16
*END

*D_NET c6brbs_2808 16
*END

*D_NET c6brbs_2809 16
*END

*D_NET c6brbs_2810 16
*END

*D_NET c6brbs_2811 16
*END

*D_NET c6brbs_2812 16
*END

*D_NET c6brbs_2813 16
*END

*D_NET c6brbs_2814 16
*END

*D_NET c6brbs_2815 16
*END

*D_NET c6brbs_2816 16
*END

*D_NET c6brbs_2817 16
*END

*D_NET c6cfg 12
*END

*D_NET c6cfg_2130 12
*END

*D_NET c6cfg_2131 12
*END

*D_NET c6cfg_2145 24
*END

*D_NET c6cfg_2146 20
*END

*D_NET c6cfg_2147 20
*END

*D_NET c6cfg_2148 16
*END

*D_NET c6csr 32
*END

*D_NET c6csr_2099 4
*END

*D_NET c6csr_2100 4
*END

*D_NET c6csr_2101 4
*END

*D_NET c6csr_2102 4
*END

*D_NET c6csr_2103 4
*END

*D_NET c6csr_2104 4
*END

*D_NET c6csr_2105 16
*END

*D_NET c6csr_2106 4
*END

*D_NET c6csr_2107 4
*END

*D_NET c6csr_2108 4
*END

*D_NET c6csr_2109 4
*END

*D_NET c6csr_2110 4
*END

*D_NET c6csr_2111 4
*END

*D_NET c6csr_2112 8
*END

*D_NET c6csr_2114 12
*END

*D_NET c6csr_2115 12
*END

*D_NET c6csr_2116 12
*END

*D_NET c6csr_2117 12
*END

*D_NET c6csr_2118 12
*END

*D_NET c6csr_2119 12
*END

*D_NET c6csr_2120 20
*END

*D_NET c6csr_2121 24
*END

*D_NET c6csr_2122 8
*END

*D_NET c6csr_2129 4
*END

*D_NET c6dad 4
*END

*D_NET c6dad_2192 4
*END

*D_NET c6dad_2193 4
*END

*D_NET c6dad_2194 12
*END

*D_NET c6dad_2195 12
*END

*D_NET c6dad_2196 12
*END

*D_NET c6dad_2197 12
*END

*D_NET c6dad_2198 12
*END

*D_NET c6dad_2199 4
*END

*D_NET c6dad_2200 12
*END

*D_NET c6dad_2201 4
*END

*D_NET c6dad_2202 12
*END

*D_NET c6dad_2203 12
*END

*D_NET c6dad_2204 4
*END

*D_NET c6dad_2205 12
*END

*D_NET c6dad_2206 12
*END

*D_NET c6dad_2207 4
*END

*D_NET c6dad_2208 4
*END

*D_NET c6dad_2209 4
*END

*D_NET c6dad_2210 4
*END

*D_NET c6dad_2211 12
*END

*D_NET c6dad_2212 12
*END

*D_NET c6dad_2213 12
*END

*D_NET c6dad_2214 12
*END

*D_NET c6dad_2215 12
*END

*D_NET c6dad_2216 12
*END

*D_NET c6dad_2217 12
*END

*D_NET c6dad_2218 12
*END

*D_NET c6dad_2219 12
*END

*D_NET c6dad_2220 12
*END

*D_NET c6dad_2221 12
*END

*D_NET c6dad_2222 12
*END

*D_NET c6dmabs 16
*END

*D_NET c6dmabs_2788 16
*END

*D_NET c6dmabs_2789 12
*END

*D_NET c6dmabs_2790 12
*END

*D_NET c6dmabs_2791 12
*END

*D_NET c6dmabs_2792 16
*END

*D_NET c6dmabs_2793 16
*END

*D_NET c6dmabs_2794 12
*END

*D_NET c6dmabs_2795 12
*END

*D_NET c6dmabs_2796 12
*END

*D_NET c6dmabs_2797 16
*END

*D_NET c6dmabs_2798 16
*END

*D_NET c6dmabs_2799 12
*END

*D_NET c6dmabs_2800 12
*END

*D_NET c6dmabs_2801 16
*END

*D_NET c6dmabs_2802 12
*END

*D_NET c6llp 12
*END

*D_NET c6llp_2223 8
*END

*D_NET c6llp_2224 16
*END

*D_NET c6llp_2225 16
*END

*D_NET c6llp_2226 16
*END

*D_NET c6llp_2227 16
*END

*D_NET c6llp_2228 16
*END

*D_NET c6llp_2229 16
*END

*D_NET c6llp_2230 16
*END

*D_NET c6llp_2231 16
*END

*D_NET c6llp_2232 16
*END

*D_NET c6llp_2233 16
*END

*D_NET c6llp_2234 12
*END

*D_NET c6llp_2235 12
*END

*D_NET c6llp_2236 16
*END

*D_NET c6llp_2237 16
*END

*D_NET c6llp_2238 16
*END

*D_NET c6llp_2239 16
*END

*D_NET c6llp_2240 16
*END

*D_NET c6llp_2241 16
*END

*D_NET c6llp_2242 16
*END

*D_NET c6llp_2243 16
*END

*D_NET c6llp_2244 16
*END

*D_NET c6llp_2245 16
*END

*D_NET c6llp_2246 16
*END

*D_NET c6llp_2247 16
*END

*D_NET c6llp_2248 16
*END

*D_NET c6llp_2249 16
*END

*D_NET c6llp_2250 16
*END

*D_NET c6llp_2251 16
*END

*D_NET c6llp_2252 16
*END

*D_NET c6llp_2253 16
*END

*D_NET c6llpen 8
*END

*D_NET c6sad 4
*END

*D_NET c6sad_2161 4
*END

*D_NET c6sad_2162 4
*END

*D_NET c6sad_2163 4
*END

*D_NET c6sad_2164 4
*END

*D_NET c6sad_2165 4
*END

*D_NET c6sad_2166 4
*END

*D_NET c6sad_2167 4
*END

*D_NET c6sad_2168 12
*END

*D_NET c6sad_2169 12
*END

*D_NET c6sad_2170 12
*END

*D_NET c6sad_2171 4
*END

*D_NET c6sad_2172 4
*END

*D_NET dma_req_0_ 4
*END

*D_NET dma_req_1_ 4
*END

*D_NET dma_req_2_ 4
*END

*D_NET dma_req_3_ 4
*END

*D_NET dma_req_4_ 4
*END

*D_NET dma_req_5_ 4
*END

*D_NET dma_req_6_ 4
*END

*D_NET dma_req_7_ 4
*END

*D_NET h0grant 12
*END

*D_NET h0rdata_0_ 12
*END

*D_NET h0rdata_10_ 12
*END

*D_NET h0rdata_11_ 12
*END

*D_NET h0rdata_12_ 12
*END

*D_NET h0rdata_13_ 12
*END

*D_NET h0rdata_14_ 12
*END

*D_NET h0rdata_15_ 8
*END

*D_NET h0rdata_16_ 12
*END

*D_NET h0rdata_17_ 12
*END

*D_NET h0rdata_18_ 12
*END

*D_NET h0rdata_19_ 12
*END

*D_NET h0rdata_1_ 12
*END

*D_NET h0rdata_20_ 12
*END

*D_NET h0rdata_21_ 12
*END

*D_NET h0rdata_22_ 12
*END

*D_NET h0rdata_23_ 12
*END

*D_NET h0rdata_24_ 12
*END
