*SPEF "IEEE 1481-1998"
*DESIGN "design-name"
*DATE "Mon Feb 13 16:33:30 2012"
*VENDOR "ISPD 2012 Contest"
*PROGRAM "Benchmark Parasitic Generator"
*VERSION "0.0"
*DESIGN_FLOW "NETLIST_TYPE_VERILOG"
*DIVIDER /
*DELIMITER :
*BUS_DELIMITER [ ]
*T_UNIT 1 PS
*C_UNIT 1 FF
*R_UNIT 1 KOHM
*L_UNIT 1 UH


*D_NET ispd_clk 0.0
*END

*D_NET pci_ad_i_0_ 4
*END

*D_NET pci_ad_i_10_ 4
*END

*D_NET pci_ad_i_11_ 4
*END

*D_NET pci_ad_i_12_ 4
*END

*D_NET pci_ad_i_13_ 4
*END

*D_NET pci_ad_i_14_ 4
*END

*D_NET pci_ad_i_15_ 4
*END

*D_NET pci_ad_i_16_ 4
*END

*D_NET pci_ad_i_17_ 4
*END

*D_NET pci_ad_i_18_ 4
*END

*D_NET pci_ad_i_19_ 4
*END

*D_NET pci_ad_i_1_ 4
*END

*D_NET pci_ad_i_20_ 4
*END

*D_NET pci_ad_i_21_ 4
*END

*D_NET pci_ad_i_22_ 4
*END

*D_NET pci_ad_i_23_ 4
*END

*D_NET pci_ad_i_24_ 4
*END

*D_NET pci_ad_i_25_ 4
*END

*D_NET pci_ad_i_26_ 4
*END

*D_NET pci_ad_i_27_ 4
*END

*D_NET pci_ad_i_28_ 4
*END

*D_NET pci_ad_i_29_ 4
*END

*D_NET pci_ad_i_2_ 4
*END

*D_NET pci_ad_i_30_ 4
*END

*D_NET pci_ad_i_31_ 4
*END

*D_NET pci_ad_i_3_ 4
*END

*D_NET pci_ad_i_4_ 4
*END

*D_NET pci_ad_i_5_ 4
*END

*D_NET pci_ad_i_6_ 4
*END

*D_NET pci_ad_i_7_ 4
*END

*D_NET pci_ad_i_8_ 4
*END

*D_NET pci_ad_i_9_ 4
*END

*D_NET pci_cbe_i_0_ 4
*END

*D_NET pci_cbe_i_1_ 4
*END

*D_NET pci_cbe_i_2_ 4
*END

*D_NET pci_cbe_i_3_ 4
*END

*D_NET pci_devsel_i 4
*END

*D_NET pci_frame_i 4
*END

*D_NET pci_gnt_i 12
*END

*D_NET pci_idsel_i 4
*END

*D_NET pci_irdy_i 4
*END

*D_NET pci_par_i 4
*END

*D_NET pci_perr_i 4
*END

*D_NET pci_rst_i 4
*END

*D_NET pci_rst_oe_o 4
*END

*D_NET pci_stop_i 4
*END

*D_NET pci_trdy_i 4
*END

*D_NET wb_int_i 4
*END

*D_NET wbm_ack_i 24
*END

*D_NET wbm_dat_i_0_ 4
*END

*D_NET wbm_dat_i_10_ 4
*END

*D_NET wbm_dat_i_11_ 4
*END

*D_NET wbm_dat_i_12_ 4
*END

*D_NET wbm_dat_i_13_ 4
*END

*D_NET wbm_dat_i_14_ 4
*END

*D_NET wbm_dat_i_15_ 4
*END

*D_NET wbm_dat_i_16_ 4
*END

*D_NET wbm_dat_i_17_ 4
*END

*D_NET wbm_dat_i_18_ 4
*END

*D_NET wbm_dat_i_19_ 4
*END

*D_NET wbm_dat_i_1_ 4
*END

*D_NET wbm_dat_i_20_ 4
*END

*D_NET wbm_dat_i_21_ 4
*END

*D_NET wbm_dat_i_22_ 4
*END

*D_NET wbm_dat_i_23_ 4
*END

*D_NET wbm_dat_i_24_ 4
*END

*D_NET wbm_dat_i_25_ 4
*END

*D_NET wbm_dat_i_26_ 4
*END

*D_NET wbm_dat_i_27_ 4
*END

*D_NET wbm_dat_i_28_ 4
*END

*D_NET wbm_dat_i_29_ 4
*END

*D_NET wbm_dat_i_2_ 4
*END

*D_NET wbm_dat_i_30_ 4
*END

*D_NET wbm_dat_i_31_ 4
*END

*D_NET wbm_dat_i_3_ 4
*END

*D_NET wbm_dat_i_4_ 4
*END

*D_NET wbm_dat_i_5_ 4
*END

*D_NET wbm_dat_i_6_ 4
*END

*D_NET wbm_dat_i_7_ 4
*END

*D_NET wbm_dat_i_8_ 4
*END

*D_NET wbm_dat_i_9_ 4
*END

*D_NET wbm_err_i 16
*END

*D_NET wbm_rty_i 10
*END

*D_NET wbs_adr_i_0_ 4
*END

*D_NET wbs_adr_i_10_ 4
*END

*D_NET wbs_adr_i_11_ 4
*END

*D_NET wbs_adr_i_12_ 4
*END

*D_NET wbs_adr_i_13_ 4
*END

*D_NET wbs_adr_i_14_ 4
*END

*D_NET wbs_adr_i_15_ 4
*END

*D_NET wbs_adr_i_16_ 4
*END

*D_NET wbs_adr_i_17_ 4
*END

*D_NET wbs_adr_i_18_ 4
*END

*D_NET wbs_adr_i_19_ 4
*END

*D_NET wbs_adr_i_1_ 4
*END

*D_NET wbs_adr_i_20_ 4
*END

*D_NET wbs_adr_i_21_ 4
*END

*D_NET wbs_adr_i_22_ 4
*END

*D_NET wbs_adr_i_23_ 4
*END

*D_NET wbs_adr_i_24_ 4
*END

*D_NET wbs_adr_i_25_ 4
*END

*D_NET wbs_adr_i_26_ 4
*END

*D_NET wbs_adr_i_27_ 4
*END

*D_NET wbs_adr_i_28_ 4
*END

*D_NET wbs_adr_i_29_ 4
*END

*D_NET wbs_adr_i_2_ 8
*END

*D_NET wbs_adr_i_30_ 4
*END

*D_NET wbs_adr_i_31_ 4
*END

*D_NET wbs_adr_i_3_ 8
*END

*D_NET wbs_adr_i_4_ 8
*END

*D_NET wbs_adr_i_5_ 8
*END

*D_NET wbs_adr_i_6_ 4
*END

*D_NET wbs_adr_i_7_ 4
*END

*D_NET wbs_adr_i_8_ 4
*END

*D_NET wbs_adr_i_9_ 4
*END

*D_NET wbs_bte_i_0_ 12
*END

*D_NET wbs_bte_i_1_ 12
*END

*D_NET wbs_cti_i_0_ 0.4
*END

*D_NET wbs_cti_i_1_ 1
*END

*D_NET wbs_cti_i_2_ 0.4
*END

*D_NET wbs_cyc_i 8
*END

*D_NET wbs_dat_i_0_ 4
*END

*D_NET wbs_dat_i_10_ 4
*END

*D_NET wbs_dat_i_11_ 4
*END

*D_NET wbs_dat_i_12_ 4
*END

*D_NET wbs_dat_i_13_ 4
*END

*D_NET wbs_dat_i_14_ 4
*END

*D_NET wbs_dat_i_15_ 4
*END

*D_NET wbs_dat_i_16_ 4
*END

*D_NET wbs_dat_i_17_ 4
*END

*D_NET wbs_dat_i_18_ 4
*END

*D_NET wbs_dat_i_19_ 4
*END

*D_NET wbs_dat_i_1_ 4
*END

*D_NET wbs_dat_i_20_ 4
*END

*D_NET wbs_dat_i_21_ 4
*END

*D_NET wbs_dat_i_22_ 4
*END

*D_NET wbs_dat_i_23_ 4
*END

*D_NET wbs_dat_i_24_ 4
*END

*D_NET wbs_dat_i_25_ 4
*END

*D_NET wbs_dat_i_26_ 4
*END

*D_NET wbs_dat_i_27_ 4
*END

*D_NET wbs_dat_i_28_ 4
*END

*D_NET wbs_dat_i_29_ 4
*END

*D_NET wbs_dat_i_2_ 4
*END

*D_NET wbs_dat_i_30_ 4
*END

*D_NET wbs_dat_i_31_ 4
*END

*D_NET wbs_dat_i_3_ 4
*END

*D_NET wbs_dat_i_4_ 4
*END

*D_NET wbs_dat_i_5_ 4
*END

*D_NET wbs_dat_i_6_ 4
*END

*D_NET wbs_dat_i_7_ 4
*END

*D_NET wbs_dat_i_8_ 4
*END

*D_NET wbs_dat_i_9_ 4
*END

*D_NET wbs_sel_i_0_ 4
*END

*D_NET wbs_sel_i_1_ 4
*END

*D_NET wbs_sel_i_2_ 4
*END

*D_NET wbs_sel_i_3_ 4
*END

*D_NET wbs_stb_i 5
*END

*D_NET wbs_we_i 8
*END

*D_NET pci_ad_o_0_ 8
*END

*D_NET pci_ad_o_10_ 8
*END

*D_NET pci_ad_o_11_ 8
*END

*D_NET pci_ad_o_12_ 8
*END

*D_NET pci_ad_o_13_ 8
*END

*D_NET pci_ad_o_14_ 8
*END

*D_NET pci_ad_o_15_ 8
*END

*D_NET pci_ad_o_16_ 8
*END

*D_NET pci_ad_o_17_ 8
*END

*D_NET pci_ad_o_18_ 8
*END

*D_NET pci_ad_o_19_ 8
*END

*D_NET pci_ad_o_1_ 8
*END

*D_NET pci_ad_o_20_ 8
*END

*D_NET pci_ad_o_21_ 8
*END

*D_NET pci_ad_o_22_ 8
*END

*D_NET pci_ad_o_23_ 8
*END

*D_NET pci_ad_o_24_ 8
*END

*D_NET pci_ad_o_25_ 8
*END

*D_NET pci_ad_o_26_ 8
*END

*D_NET pci_ad_o_27_ 8
*END

*D_NET pci_ad_o_28_ 8
*END

*D_NET pci_ad_o_29_ 8
*END

*D_NET pci_ad_o_2_ 8
*END

*D_NET pci_ad_o_30_ 8
*END

*D_NET pci_ad_o_31_ 8
*END

*D_NET pci_ad_o_3_ 8
*END

*D_NET pci_ad_o_4_ 8
*END

*D_NET pci_ad_o_5_ 8
*END

*D_NET pci_ad_o_6_ 8
*END

*D_NET pci_ad_o_7_ 8
*END

*D_NET pci_ad_o_8_ 8
*END

*D_NET pci_ad_o_9_ 8
*END

*D_NET pci_ad_oe_o_0_ 4
*END

*D_NET pci_ad_oe_o_10_ 4
*END

*D_NET pci_ad_oe_o_11_ 4
*END

*D_NET pci_ad_oe_o_12_ 4
*END

*D_NET pci_ad_oe_o_13_ 4
*END

*D_NET pci_ad_oe_o_14_ 4
*END

*D_NET pci_ad_oe_o_15_ 4
*END

*D_NET pci_ad_oe_o_16_ 4
*END

*D_NET pci_ad_oe_o_17_ 4
*END

*D_NET pci_ad_oe_o_18_ 4
*END

*D_NET pci_ad_oe_o_19_ 4
*END

*D_NET pci_ad_oe_o_1_ 4
*END

*D_NET pci_ad_oe_o_20_ 4
*END

*D_NET pci_ad_oe_o_21_ 4
*END

*D_NET pci_ad_oe_o_22_ 4
*END

*D_NET pci_ad_oe_o_23_ 4
*END

*D_NET pci_ad_oe_o_24_ 4
*END

*D_NET pci_ad_oe_o_25_ 4
*END

*D_NET pci_ad_oe_o_26_ 4
*END

*D_NET pci_ad_oe_o_27_ 4
*END

*D_NET pci_ad_oe_o_28_ 4
*END

*D_NET pci_ad_oe_o_29_ 4
*END

*D_NET pci_ad_oe_o_2_ 4
*END

*D_NET pci_ad_oe_o_30_ 4
*END

*D_NET pci_ad_oe_o_31_ 4
*END

*D_NET pci_ad_oe_o_3_ 4
*END

*D_NET pci_ad_oe_o_4_ 4
*END

*D_NET pci_ad_oe_o_5_ 4
*END

*D_NET pci_ad_oe_o_6_ 4
*END

*D_NET pci_ad_oe_o_7_ 4
*END

*D_NET pci_ad_oe_o_8_ 4
*END

*D_NET pci_ad_oe_o_9_ 4
*END

*D_NET pci_cbe_o_0_ 8
*END

*D_NET pci_cbe_o_1_ 8
*END

*D_NET pci_cbe_o_2_ 8
*END

*D_NET pci_cbe_o_3_ 8
*END

*D_NET pci_cbe_oe_o_0_ 4
*END

*D_NET pci_cbe_oe_o_1_ 4
*END

*D_NET pci_cbe_oe_o_2_ 4
*END

*D_NET pci_cbe_oe_o_3_ 4
*END

*D_NET pci_devsel_o 4
*END

*D_NET pci_devsel_oe_o 4
*END

*D_NET pci_frame_o 8
*END

*D_NET pci_frame_oe_o 4
*END

*D_NET pci_inta_oe_o 8
*END

*D_NET pci_irdy_o 4
*END

*D_NET pci_irdy_oe_o 4
*END

*D_NET pci_par_o 4
*END

*D_NET pci_par_oe_o 4
*END

*D_NET pci_perr_o 4
*END

*D_NET pci_perr_oe_o 4
*END

*D_NET pci_req_o 4
*END

*D_NET pci_req_oe_o 4
*END

*D_NET pci_serr_o 4
*END

*D_NET pci_serr_oe_o 4
*END

*D_NET pci_stop_o 4
*END

*D_NET pci_stop_oe_o 4
*END

*D_NET pci_trdy_o 4
*END

*D_NET pci_trdy_oe_o 4
*END

*D_NET wb_rst_o 4
*END

*D_NET wbm_adr_o_0_ 12
*END

*D_NET wbm_adr_o_10_ 28
*END

*D_NET wbm_adr_o_11_ 28
*END

*D_NET wbm_adr_o_12_ 28
*END

*D_NET wbm_adr_o_13_ 28
*END

*D_NET wbm_adr_o_14_ 28
*END

*D_NET wbm_adr_o_15_ 28
*END

*D_NET wbm_adr_o_16_ 28
*END

*D_NET wbm_adr_o_17_ 7
*END

*D_NET wbm_adr_o_18_ 7
*END

*D_NET wbm_adr_o_19_ 7
*END

*D_NET wbm_adr_o_1_ 12
*END

*D_NET wbm_adr_o_20_ 7
*END

*D_NET wbm_adr_o_21_ 7
*END

*D_NET wbm_adr_o_22_ 7
*END

*D_NET wbm_adr_o_23_ 7
*END

*D_NET wbm_adr_o_24_ 7
*END

*D_NET wbm_adr_o_25_ 28
*END

*D_NET wbm_adr_o_26_ 28
*END

*D_NET wbm_adr_o_27_ 28
*END

*D_NET wbm_adr_o_28_ 28
*END

*D_NET wbm_adr_o_29_ 28
*END

*D_NET wbm_adr_o_2_ 9
*END

*D_NET wbm_adr_o_30_ 24
*END

*D_NET wbm_adr_o_31_ 20
*END

*D_NET wbm_adr_o_3_ 7
*END

*D_NET wbm_adr_o_4_ 32
*END

*D_NET wbm_adr_o_5_ 8
*END

*D_NET wbm_adr_o_6_ 7
*END

*D_NET wbm_adr_o_7_ 28
*END

*D_NET wbm_adr_o_8_ 28
*END

*D_NET wbm_adr_o_9_ 28
*END

*D_NET wbm_cti_o_0_ 12
*END

*D_NET wbm_cti_o_1_ 12
*END

*D_NET wbm_cti_o_2_ 12
*END

*D_NET wbm_cyc_o 8
*END

*D_NET wbm_dat_o_0_ 16
*END

*D_NET wbm_dat_o_10_ 16
*END

*D_NET wbm_dat_o_11_ 16
*END

*D_NET wbm_dat_o_12_ 16
*END

*D_NET wbm_dat_o_13_ 16
*END

*D_NET wbm_dat_o_14_ 16
*END

*D_NET wbm_dat_o_15_ 16
*END

*D_NET wbm_dat_o_16_ 16
*END

*D_NET wbm_dat_o_17_ 16
*END

*D_NET wbm_dat_o_18_ 16
*END

*D_NET wbm_dat_o_19_ 16
*END

*D_NET wbm_dat_o_1_ 16
*END

*D_NET wbm_dat_o_20_ 16
*END

*D_NET wbm_dat_o_21_ 16
*END

*D_NET wbm_dat_o_22_ 16
*END

*D_NET wbm_dat_o_23_ 16
*END

*D_NET wbm_dat_o_24_ 16
*END

*D_NET wbm_dat_o_25_ 16
*END

*D_NET wbm_dat_o_26_ 16
*END

*D_NET wbm_dat_o_27_ 16
*END

*D_NET wbm_dat_o_28_ 16
*END

*D_NET wbm_dat_o_29_ 16
*END

*D_NET wbm_dat_o_2_ 16
*END

*D_NET wbm_dat_o_30_ 16
*END

*D_NET wbm_dat_o_31_ 16
*END

*D_NET wbm_dat_o_3_ 16
*END

*D_NET wbm_dat_o_4_ 16
*END

*D_NET wbm_dat_o_5_ 16
*END

*D_NET wbm_dat_o_6_ 16
*END

*D_NET wbm_dat_o_7_ 16
*END

*D_NET wbm_dat_o_8_ 16
*END

*D_NET wbm_dat_o_9_ 16
*END

*D_NET wbm_sel_o_0_ 16
*END

*D_NET wbm_sel_o_1_ 16
*END

*D_NET wbm_sel_o_2_ 16
*END

*D_NET wbm_sel_o_3_ 16
*END

*D_NET wbm_stb_o 8
*END

*D_NET wbm_we_o 4
*END

*D_NET wbs_ack_o 16
*END

*D_NET wbs_dat_o_0_ 8
*END

*D_NET wbs_dat_o_10_ 8
*END

*D_NET wbs_dat_o_11_ 8
*END

*D_NET wbs_dat_o_12_ 8
*END

*D_NET wbs_dat_o_13_ 8
*END

*D_NET wbs_dat_o_14_ 8
*END

*D_NET wbs_dat_o_15_ 8
*END

*D_NET wbs_dat_o_16_ 8
*END

*D_NET wbs_dat_o_17_ 8
*END

*D_NET wbs_dat_o_18_ 8
*END

*D_NET wbs_dat_o_19_ 8
*END

*D_NET wbs_dat_o_1_ 8
*END

*D_NET wbs_dat_o_20_ 8
*END

*D_NET wbs_dat_o_21_ 8
*END

*D_NET wbs_dat_o_22_ 8
*END

*D_NET wbs_dat_o_23_ 8
*END

*D_NET wbs_dat_o_24_ 8
*END

*D_NET wbs_dat_o_25_ 8
*END

*D_NET wbs_dat_o_26_ 8
*END

*D_NET wbs_dat_o_27_ 8
*END

*D_NET wbs_dat_o_28_ 8
*END

*D_NET wbs_dat_o_29_ 8
*END

*D_NET wbs_dat_o_2_ 8
*END

*D_NET wbs_dat_o_30_ 8
*END

*D_NET wbs_dat_o_31_ 8
*END

*D_NET wbs_dat_o_3_ 8
*END

*D_NET wbs_dat_o_4_ 8
*END

*D_NET wbs_dat_o_5_ 8
*END

*D_NET wbs_dat_o_6_ 8
*END

*D_NET wbs_dat_o_7_ 8
*END

*D_NET wbs_dat_o_8_ 8
*END

*D_NET wbs_dat_o_9_ 8
*END

*D_NET wbs_err_o 16
*END

*D_NET wbs_rty_o 16
*END

*D_NET conf_pci_err_bc_in 4
*END

*D_NET conf_pci_err_bc_in_914 4
*END

*D_NET conf_pci_err_bc_in_915 4
*END

*D_NET conf_pci_err_bc_in_916 4
*END

*D_NET conf_pci_init_complete_out 20
*END

*D_NET conf_target_abort_recv_in 4
*END

*D_NET conf_w_addr_in 5
*END

*D_NET conf_w_addr_in_931 3
*END

*D_NET conf_w_addr_in_932 1
*END

*D_NET conf_w_addr_in_933 1
*END

*D_NET conf_w_addr_in_935 1
*END

*D_NET conf_w_addr_in_937 1
*END

*D_NET conf_w_addr_in_938 4
*END

*D_NET conf_w_addr_in_939 1
*END

*D_NET conf_wb_err_addr_in_943 36
*END

*D_NET conf_wb_err_addr_in_944 7
*END

*D_NET conf_wb_err_addr_in_945 8
*END

*D_NET conf_wb_err_addr_in_946 7
*END

*D_NET conf_wb_err_addr_in_947 7
*END

*D_NET conf_wb_err_addr_in_948 7
*END

*D_NET conf_wb_err_addr_in_949 28
*END

*D_NET conf_wb_err_addr_in_950 36
*END

*D_NET conf_wb_err_addr_in_951 28
*END

*D_NET conf_wb_err_addr_in_952 28
*END

*D_NET conf_wb_err_addr_in_953 28
*END

*D_NET conf_wb_err_addr_in_954 28
*END

*D_NET conf_wb_err_addr_in_955 32
*END

*D_NET conf_wb_err_addr_in_956 28
*END

*D_NET conf_wb_err_addr_in_957 28
*END

*D_NET conf_wb_err_addr_in_958 28
*END

*D_NET conf_wb_err_addr_in_959 7
*END

*D_NET conf_wb_err_addr_in_960 7
*END

*D_NET conf_wb_err_addr_in_961 28
*END

*D_NET conf_wb_err_addr_in_962 28
*END

*D_NET conf_wb_err_addr_in_963 7
*END

*D_NET conf_wb_err_addr_in_964 7
*END

*D_NET conf_wb_err_addr_in_965 7
*END

*D_NET conf_wb_err_addr_in_966 7
*END

*D_NET conf_wb_err_addr_in_967 7
*END

*D_NET conf_wb_err_addr_in_968 7
*END

*D_NET conf_wb_err_addr_in_969 28
*END

*D_NET conf_wb_err_addr_in_970 28
*END

*D_NET conf_wb_err_addr_in_971 24
*END

*D_NET conf_wb_err_addr_in_972 4
*END

*D_NET conf_wb_err_bc_in 32
*END

*D_NET conf_wb_err_bc_in_846 28
*END

*D_NET conf_wb_err_bc_in_847 24
*END

*D_NET conf_wb_err_bc_in_848 28
*END

*D_NET configuration_block_set_isr_bit2 4
*END

*D_NET configuration_block_set_pci_err_cs_bit8 4
*END

*D_NET configuration_cache_line_size_reg 12
*END

*D_NET configuration_cache_line_size_reg_2996 12
*END

*D_NET configuration_command_bit 12
*END

*D_NET configuration_icr_bit2_0 12
*END

*D_NET configuration_icr_bit_2961 12
*END

*D_NET configuration_icr_bit_2967 12
*END

*D_NET configuration_int_meta 4
*END

*D_NET configuration_interrupt_line 8
*END

*D_NET configuration_interrupt_line_37 8
*END

*D_NET configuration_interrupt_line_38 8
*END

*D_NET configuration_interrupt_line_39 12
*END

*D_NET configuration_interrupt_line_40 12
*END

*D_NET configuration_interrupt_line_41 12
*END

*D_NET configuration_interrupt_line_42 8
*END

*D_NET configuration_interrupt_line_43 12
*END

*D_NET configuration_interrupt_out_reg_Q 4
*END

*D_NET configuration_isr_bit_1457 4
*END

*D_NET configuration_isr_bit_1461 4
*END

*D_NET configuration_isr_bit_2975 12
*END

*D_NET configuration_isr_bit_618 4
*END

*D_NET configuration_isr_bit_631 4
*END

*D_NET configuration_meta_cache_lsize_to_wb_bits 4
*END

*D_NET configuration_meta_cache_lsize_to_wb_bits_926 4
*END

*D_NET configuration_meta_cache_lsize_to_wb_bits_927 4
*END

*D_NET configuration_meta_cache_lsize_to_wb_bits_928 4
*END

*D_NET configuration_meta_cache_lsize_to_wb_bits_929 4
*END

*D_NET configuration_meta_cache_lsize_to_wb_bits_930 4
*END

*D_NET configuration_meta_cache_lsize_to_wb_bits_931 4
*END

*D_NET configuration_meta_command_bit 4
*END

*D_NET configuration_meta_pci_err_cs_bits 4
*END

*D_NET configuration_pci_err_addr 8
*END

*D_NET configuration_pci_err_addr_471 8
*END

*D_NET configuration_pci_err_addr_472 8
*END

*D_NET configuration_pci_err_addr_473 8
*END

*D_NET configuration_pci_err_addr_474 8
*END

*D_NET configuration_pci_err_addr_475 8
*END

*D_NET configuration_pci_err_addr_476 8
*END

*D_NET configuration_pci_err_addr_477 8
*END

*D_NET configuration_pci_err_addr_478 8
*END

*D_NET configuration_pci_err_addr_479 8
*END

*D_NET configuration_pci_err_addr_480 8
*END

*D_NET configuration_pci_err_addr_481 8
*END

*D_NET configuration_pci_err_addr_482 8
*END

*D_NET configuration_pci_err_addr_483 8
*END

*D_NET configuration_pci_err_addr_484 8
*END

*D_NET configuration_pci_err_addr_485 8
*END

*D_NET configuration_pci_err_addr_486 8
*END

*D_NET configuration_pci_err_addr_487 8
*END

*D_NET configuration_pci_err_addr_488 8
*END

*D_NET configuration_pci_err_addr_489 8
*END

*D_NET configuration_pci_err_addr_490 8
*END

*D_NET configuration_pci_err_addr_491 8
*END

*D_NET configuration_pci_err_addr_492 8
*END

*D_NET configuration_pci_err_addr_493 8
*END

*D_NET configuration_pci_err_addr_494 8
*END

*D_NET configuration_pci_err_addr_495 8
*END

*D_NET configuration_pci_err_addr_496 8
*END

*D_NET configuration_pci_err_addr_497 8
*END

*D_NET configuration_pci_err_addr_498 8
*END

*D_NET configuration_pci_err_addr_499 8
*END

*D_NET configuration_pci_err_addr_500 8
*END

*D_NET configuration_pci_err_addr_501 8
*END

*D_NET configuration_pci_err_cs_bit0 12
*END

*D_NET configuration_pci_err_cs_bit10 8
*END

*D_NET configuration_pci_err_cs_bit31_24 8
*END

*D_NET configuration_pci_err_cs_bit8 4
*END

*D_NET configuration_pci_err_cs_bit9 8
*END

*D_NET configuration_pci_err_cs_bit_464 8
*END

*D_NET configuration_pci_err_cs_bit_465 8
*END

*D_NET configuration_pci_err_cs_bit_466 8
*END

*D_NET configuration_pci_err_cs_bit_467 8
*END

*D_NET configuration_pci_err_cs_bit_468 8
*END

*D_NET configuration_pci_err_cs_bit_469 8
*END

*D_NET configuration_pci_err_cs_bit_470 8
*END

*D_NET configuration_pci_err_data 8
*END

*D_NET configuration_pci_err_data_502 8
*END

*D_NET configuration_pci_err_data_503 8
*END

*D_NET configuration_pci_err_data_504 8
*END

*D_NET configuration_pci_err_data_505 8
*END

*D_NET configuration_pci_err_data_506 8
*END

*D_NET configuration_pci_err_data_507 8
*END

*D_NET configuration_pci_err_data_508 8
*END

*D_NET configuration_pci_err_data_509 8
*END

*D_NET configuration_pci_err_data_510 8
*END

*D_NET configuration_pci_err_data_511 8
*END

*D_NET configuration_pci_err_data_512 8
*END

*D_NET configuration_pci_err_data_513 8
*END

*D_NET configuration_pci_err_data_514 8
*END

*D_NET configuration_pci_err_data_515 8
*END

*D_NET configuration_pci_err_data_516 8
*END

*D_NET configuration_pci_err_data_517 8
*END

*D_NET configuration_pci_err_data_518 8
*END

*D_NET configuration_pci_err_data_519 8
*END

*D_NET configuration_pci_err_data_520 8
*END

*D_NET configuration_pci_err_data_521 8
*END

*D_NET configuration_pci_err_data_522 8
*END

*D_NET configuration_pci_err_data_523 8
*END

*D_NET configuration_pci_err_data_524 8
*END

*D_NET configuration_pci_err_data_525 8
*END

*D_NET configuration_pci_err_data_526 8
*END

*D_NET configuration_pci_err_data_527 8
*END

*D_NET configuration_pci_err_data_528 8
*END

*D_NET configuration_pci_err_data_529 8
*END

*D_NET configuration_pci_err_data_530 8
*END

*D_NET configuration_pci_err_data_531 8
*END

*D_NET configuration_pci_err_data_532 8
*END

*D_NET configuration_rst_inactive 4
*END

*D_NET configuration_rst_inactive_sync 4
*END

*D_NET configuration_set_isr_bit2 8
*END

*D_NET configuration_set_isr_bit2_reg_Q 4
*END

*D_NET configuration_set_pci_err_cs_bit8 8
*END

*D_NET configuration_set_pci_err_cs_bit8_reg_Q 4
*END

*D_NET configuration_status_bit8 8
*END

*D_NET configuration_status_bit_322 8
*END

*D_NET configuration_status_bit_351 8
*END

*D_NET configuration_status_bit_379 8
*END

*D_NET configuration_status_bit_407 8
*END

*D_NET configuration_status_bit_435 8
*END

*D_NET configuration_sync_cache_lsize_to_wb_bits_reg_2__Q 4
*END

*D_NET configuration_sync_cache_lsize_to_wb_bits_reg_3__Q 1
*END

*D_NET configuration_sync_cache_lsize_to_wb_bits_reg_4__Q 1
*END

*D_NET configuration_sync_command_bit0 12
*END

*D_NET configuration_sync_command_bit1 12
*END

*D_NET configuration_sync_command_bit2 8
*END

*D_NET configuration_sync_command_bit6 12
*END

*D_NET configuration_sync_command_bit8 12
*END

*D_NET configuration_sync_init_complete 4
*END

*D_NET configuration_sync_isr_2_del_bit_reg_Q 4
*END

*D_NET configuration_sync_isr_2_delayed_bckp_bit 4
*END

*D_NET configuration_sync_isr_2_delayed_bckp_bit_reg_Q 4
*END

*D_NET configuration_sync_isr_2_delayed_del_bit 4
*END

*D_NET configuration_sync_isr_2_delayed_del_bit_reg_Q 4
*END

*D_NET configuration_sync_isr_2_meta_bckp_bit 4
*END

*D_NET configuration_sync_isr_2_meta_del_bit 4
*END

*D_NET configuration_sync_isr_2_sync_bckp_bit 8
*END

*D_NET configuration_sync_isr_2_sync_del_bit 12
*END

*D_NET configuration_sync_pci_err_cs_8_del_bit_reg_Q 4
*END

*D_NET configuration_sync_pci_err_cs_8_delayed_bckp_bit 4
*END

*D_NET configuration_sync_pci_err_cs_8_delayed_bckp_bit_reg_Q 4
*END

*D_NET configuration_sync_pci_err_cs_8_delayed_del_bit 4
*END

*D_NET configuration_sync_pci_err_cs_8_delayed_del_bit_reg_Q 4
*END

*D_NET configuration_sync_pci_err_cs_8_meta_bckp_bit 4
*END

*D_NET configuration_sync_pci_err_cs_8_meta_del_bit 4
*END

*D_NET configuration_sync_pci_err_cs_8_sync_bckp_bit 8
*END

*D_NET configuration_sync_pci_err_cs_8_sync_del_bit 12
*END

*D_NET configuration_wb_err_addr 8
*END

*D_NET configuration_wb_err_addr_533 8
*END

*D_NET configuration_wb_err_addr_534 8
*END

*D_NET configuration_wb_err_addr_535 8
*END

*D_NET configuration_wb_err_addr_536 8
*END

*D_NET configuration_wb_err_addr_537 8
*END

*D_NET configuration_wb_err_addr_538 8
*END

*D_NET configuration_wb_err_addr_539 8
*END

*D_NET configuration_wb_err_addr_540 8
*END

*D_NET configuration_wb_err_addr_541 8
*END

*D_NET configuration_wb_err_addr_542 8
*END

*D_NET configuration_wb_err_addr_543 8
*END

*D_NET configuration_wb_err_addr_544 8
*END

*D_NET configuration_wb_err_addr_545 8
*END

*D_NET configuration_wb_err_addr_546 8
*END

*D_NET configuration_wb_err_addr_547 8
*END

*D_NET configuration_wb_err_addr_548 8
*END

*D_NET configuration_wb_err_addr_549 8
*END

*D_NET configuration_wb_err_addr_550 8
*END

*D_NET configuration_wb_err_addr_551 8
*END

*D_NET configuration_wb_err_addr_552 8
*END

*D_NET configuration_wb_err_addr_553 8
*END

*D_NET configuration_wb_err_addr_554 8
*END

*D_NET configuration_wb_err_addr_555 8
*END

*D_NET configuration_wb_err_addr_556 8
*END

*D_NET configuration_wb_err_addr_557 8
*END

*D_NET configuration_wb_err_addr_558 8
*END

*D_NET configuration_wb_err_addr_559 8
*END

*D_NET configuration_wb_err_addr_560 8
*END

*D_NET configuration_wb_err_addr_561 8
*END

*D_NET configuration_wb_err_addr_562 8
*END

*D_NET configuration_wb_err_addr_563 8
*END

*D_NET configuration_wb_err_cs_bit0 16
*END

*D_NET configuration_wb_err_cs_bit31_24 8
*END

*D_NET configuration_wb_err_cs_bit8 8
*END

*D_NET configuration_wb_err_cs_bit9 8
*END

*D_NET configuration_wb_err_cs_bit_564 8
*END

*D_NET configuration_wb_err_cs_bit_565 8
*END

*D_NET configuration_wb_err_cs_bit_566 8
*END

*D_NET configuration_wb_err_cs_bit_567 8
*END

*D_NET configuration_wb_err_cs_bit_568 8
*END

*D_NET configuration_wb_err_cs_bit_569 8
*END

*D_NET configuration_wb_err_cs_bit_570 8
*END

*D_NET configuration_wb_err_data 8
*END

*D_NET configuration_wb_err_data_571 8
*END

*D_NET configuration_wb_err_data_572 8
*END

*D_NET configuration_wb_err_data_573 8
*END

*D_NET configuration_wb_err_data_574 8
*END

*D_NET configuration_wb_err_data_575 8
*END

*D_NET configuration_wb_err_data_576 8
*END

*D_NET configuration_wb_err_data_577 8
*END

*D_NET configuration_wb_err_data_578 8
*END

*D_NET configuration_wb_err_data_579 8
*END

*D_NET configuration_wb_err_data_580 8
*END

*D_NET configuration_wb_err_data_581 8
*END

*D_NET configuration_wb_err_data_582 8
*END

*D_NET configuration_wb_err_data_583 8
*END

*D_NET configuration_wb_err_data_584 8
*END

*D_NET configuration_wb_err_data_585 8
*END

*D_NET configuration_wb_err_data_586 8
*END

*D_NET configuration_wb_err_data_587 8
*END

*D_NET configuration_wb_err_data_588 8
*END

*D_NET configuration_wb_err_data_589 8
*END

*D_NET configuration_wb_err_data_590 8
*END

*D_NET configuration_wb_err_data_591 8
*END

*D_NET configuration_wb_err_data_592 8
*END

*D_NET configuration_wb_err_data_593 8
*END

*D_NET configuration_wb_err_data_594 8
*END

*D_NET configuration_wb_err_data_595 8
*END

*D_NET configuration_wb_err_data_596 8
*END

*D_NET configuration_wb_err_data_597 8
*END

*D_NET configuration_wb_err_data_598 8
*END

*D_NET configuration_wb_err_data_599 8
*END

*D_NET configuration_wb_err_data_600 8
*END

*D_NET configuration_wb_err_data_601 8
*END

*D_NET g15_p 1
*END

*D_NET g17_p 4
*END

*D_NET g20_dup74712_da 1
*END

*D_NET g20_dup74712_db 1
*END

*D_NET g20_dup74712_sb 1
*END

*D_NET g22_p 1
*END

*D_NET g3_p 4
*END

*D_NET g52252_p 1
*END

*D_NET g52253_p 1
*END

*D_NET g52393_da 4
*END

*D_NET g52393_db 4
*END

*D_NET g52393_sb 4
*END

*D_NET g52394_da 4
*END

*D_NET g52394_db 4
*END

*D_NET g52394_sb 4
*END

*D_NET g52395_da 4
*END

*D_NET g52395_db 4
*END

*D_NET g52395_sb 4
*END

*D_NET g52396_da 4
*END

*D_NET g52396_db 4
*END

*D_NET g52396_sb 4
*END

*D_NET g52397_da 4
*END

*D_NET g52397_db 4
*END

*D_NET g52397_sb 4
*END

*D_NET g52398_da 1
*END

*D_NET g52398_db 4
*END

*D_NET g52398_sb 4
*END

*D_NET g52399_da 1
*END

*D_NET g52399_db 4
*END

*D_NET g52399_sb 4
*END

*D_NET g52400_da 1
*END

*D_NET g52400_db 4
*END

*D_NET g52400_sb 4
*END

*D_NET g52401_da 4
*END

*D_NET g52401_db 4
*END

*D_NET g52401_sb 4
*END

*D_NET g52402_da 4
*END

*D_NET g52402_db 4
*END

*D_NET g52402_sb 4
*END

*D_NET g52403_da 1
*END

*D_NET g52403_db 4
*END

*D_NET g52403_sb 4
*END

*D_NET g52404_da 1
*END

*D_NET g52404_db 4
*END

*D_NET g52404_sb 4
*END

*D_NET g52405_da 4
*END

*D_NET g52405_db 4
*END

*D_NET g52405_sb 4
*END

*D_NET g52439_da 4
*END

*D_NET g52439_db 4
*END

*D_NET g52439_sb 4
*END

*D_NET g52440_da 4
*END

*D_NET g52440_db 4
*END

*D_NET g52440_sb 4
*END

*D_NET g52441_da 4
*END

*D_NET g52441_db 4
*END

*D_NET g52441_sb 4
*END

*D_NET g52442_da 4
*END

*D_NET g52442_db 4
*END

*D_NET g52442_sb 4
*END

*D_NET g52443_da 4
*END

*D_NET g52443_db 4
*END

*D_NET g52443_sb 4
*END

*D_NET g52444_da 4
*END

*D_NET g52444_db 4
*END

*D_NET g52444_sb 4
*END

*D_NET g52445_da 4
*END

*D_NET g52445_db 4
*END

*D_NET g52445_sb 4
*END

*D_NET g52446_da 1
*END

*D_NET g52446_db 4
*END

*D_NET g52446_sb 4
*END

*D_NET g52447_da 4
*END

*D_NET g52447_db 4
*END

*D_NET g52447_sb 4
*END

*D_NET g52448_da 4
*END

*D_NET g52448_db 4
*END

*D_NET g52448_sb 4
*END

*D_NET g52449_da 4
*END

*D_NET g52449_db 4
*END

*D_NET g52449_sb 4
*END

*D_NET g52450_da 4
*END

*D_NET g52450_db 4
*END

*D_NET g52450_sb 4
*END

*D_NET g52451_da 4
*END

*D_NET g52451_db 4
*END

*D_NET g52451_sb 4
*END

*D_NET g52452_da 4
*END

*D_NET g52452_db 4
*END

*D_NET g52452_sb 4
*END

*D_NET g52453_da 4
*END

*D_NET g52453_db 4
*END

*D_NET g52453_sb 4
*END

*D_NET g52454_da 4
*END

*D_NET g52454_db 4
*END

*D_NET g52454_sb 4
*END

*D_NET g52455_da 4
*END

*D_NET g52455_db 4
*END

*D_NET g52455_sb 4
*END

*D_NET g52456_da 4
*END

*D_NET g52456_db 1
*END

*D_NET g52456_sb 4
*END

*D_NET g52457_da 4
*END

*D_NET g52457_db 1
*END

*D_NET g52457_sb 4
*END

*D_NET g52458_da 4
*END

*D_NET g52458_db 1
*END

*D_NET g52458_sb 4
*END

*D_NET g52459_da 4
*END

*D_NET g52459_db 1
*END

*D_NET g52459_sb 4
*END

*D_NET g52460_da 4
*END

*D_NET g52460_db 1
*END

*D_NET g52460_sb 4
*END

*D_NET g52461_da 4
*END

*D_NET g52461_db 1
*END

*D_NET g52461_sb 4
*END

*D_NET g52462_da 4
*END

*D_NET g52462_db 1
*END

*D_NET g52462_sb 4
*END

*D_NET g52463_da 4
*END

*D_NET g52463_db 1
*END

*D_NET g52463_sb 4
*END

*D_NET g52464_da 4
*END

*D_NET g52464_db 1
*END

*D_NET g52464_sb 4
*END

*D_NET g52465_da 4
*END

*D_NET g52465_db 1
*END

*D_NET g52465_sb 4
*END

*D_NET g52466_da 4
*END

*D_NET g52466_db 1
*END

*D_NET g52466_sb 4
*END

*D_NET g52467_da 4
*END

*D_NET g52467_db 1
*END

*D_NET g52467_sb 4
*END

*D_NET g52468_da 4
*END

*D_NET g52468_db 1
*END

*D_NET g52468_sb 4
*END

*D_NET g52469_da 4
*END

*D_NET g52469_db 1
*END

*D_NET g52469_sb 4
*END

*D_NET g52470_da 4
*END

*D_NET g52470_db 1
*END

*D_NET g52470_sb 4
*END

*D_NET g52471_da 4
*END

*D_NET g52471_db 1
*END

*D_NET g52471_sb 4
*END

*D_NET g52472_da 4
*END

*D_NET g52472_db 1
*END

*D_NET g52472_sb 4
*END

*D_NET g52473_da 4
*END

*D_NET g52473_db 1
*END

*D_NET g52473_sb 4
*END

*D_NET g52474_da 4
*END

*D_NET g52474_db 1
*END

*D_NET g52474_sb 4
*END

*D_NET g52475_da 4
*END

*D_NET g52475_db 0.2
*END

*D_NET g52475_sb 4
*END

*D_NET g52476_da 4
*END

*D_NET g52476_db 1
*END

*D_NET g52476_sb 4
*END

*D_NET g52477_da 4
*END

*D_NET g52477_db 1
*END

*D_NET g52477_sb 4
*END

*D_NET g52478_da 4
*END

*D_NET g52478_db 1
*END

*D_NET g52478_sb 4
*END

*D_NET g52479_da 4
*END

*D_NET g52479_db 1
*END

*D_NET g52479_sb 4
*END

*D_NET g52480_da 4
*END

*D_NET g52480_db 1
*END

*D_NET g52480_sb 4
*END

*D_NET g52481_da 4
*END

*D_NET g52481_db 1
*END

*D_NET g52481_sb 4
*END

*D_NET g52482_da 4
*END

*D_NET g52482_db 1
*END

*D_NET g52482_sb 4
*END

*D_NET g52483_da 4
*END

*D_NET g52483_db 1
*END

*D_NET g52483_sb 4
*END

*D_NET g52484_da 4
*END

*D_NET g52484_db 1
*END

*D_NET g52484_sb 4
*END

*D_NET g52485_da 4
*END

*D_NET g52485_db 1
*END

*D_NET g52485_sb 4
*END

*D_NET g52495_p 1
*END

*D_NET g52496_p 1
*END

*D_NET g52497_p 1
*END

*D_NET g52498_p 1
*END

*D_NET g52503_da 1
*END

*D_NET g52503_db 1
*END

*D_NET g52503_sb 1
*END

*D_NET g52504_da 1
*END

*D_NET g52504_db 1
*END

*D_NET g52504_sb 1
*END

*D_NET g52505_da 1
*END

*D_NET g52505_db 1
*END

*D_NET g52505_sb 1
*END

*D_NET g52506_da 1
*END

*D_NET g52506_db 1
*END

*D_NET g52506_sb 1
*END

*D_NET g52507_da 1
*END

*D_NET g52507_db 1
*END

*D_NET g52507_sb 1
*END

*D_NET g52508_da 1
*END

*D_NET g52508_db 1
*END

*D_NET g52508_sb 1
*END

*D_NET g52509_da 1
*END

*D_NET g52509_db 1
*END

*D_NET g52509_sb 1
*END

*D_NET g52510_da 1
*END

*D_NET g52510_db 1
*END

*D_NET g52510_sb 1
*END

*D_NET g52511_da 1
*END

*D_NET g52511_db 1
*END

*D_NET g52511_sb 1
*END

*D_NET g52512_da 1
*END

*D_NET g52512_db 1
*END

*D_NET g52512_sb 1
*END

*D_NET g52513_da 1
*END

*D_NET g52513_db 1
*END

*D_NET g52513_sb 1
*END

*D_NET g52514_da 1
*END

*D_NET g52514_db 1
*END

*D_NET g52514_sb 1
*END

*D_NET g52515_da 1
*END

*D_NET g52515_db 1
*END

*D_NET g52515_sb 1
*END

*D_NET g52516_da 1
*END

*D_NET g52516_db 1
*END

*D_NET g52516_sb 1
*END

*D_NET g52517_da 1
*END

*D_NET g52517_db 1
*END

*D_NET g52517_sb 1
*END

*D_NET g52518_da 1
*END

*D_NET g52518_db 1
*END

*D_NET g52518_sb 1
*END

*D_NET g52519_da 1
*END

*D_NET g52519_db 1
*END

*D_NET g52519_sb 1
*END

*D_NET g52520_da 1
*END

*D_NET g52520_db 1
*END

*D_NET g52520_sb 1
*END

*D_NET g52521_da 1
*END

*D_NET g52521_db 1
*END

*D_NET g52521_sb 1
*END

*D_NET g52522_da 1
*END

*D_NET g52522_db 1
*END

*D_NET g52522_sb 1
*END

*D_NET g52523_da 1
*END

*D_NET g52523_db 1
*END

*D_NET g52523_sb 1
*END

*D_NET g52524_da 1
*END

*D_NET g52524_db 1
*END

*D_NET g52524_sb 1
*END

*D_NET g52525_da 1
*END

*D_NET g52525_db 1
*END

*D_NET g52525_sb 1
*END

*D_NET g52526_da 1
*END

*D_NET g52526_db 1
*END

*D_NET g52526_sb 1
*END

*D_NET g52527_da 1
*END

*D_NET g52527_db 1
*END

*D_NET g52527_sb 1
*END

*D_NET g52528_da 1
*END

*D_NET g52528_db 1
*END

*D_NET g52528_sb 1
*END

*D_NET g52529_da 1
*END

*D_NET g52529_db 1
*END

*D_NET g52529_sb 1
*END

*D_NET g52530_da 1
*END

*D_NET g52530_db 1
*END

*D_NET g52530_sb 1
*END

*D_NET g52531_da 1
*END

*D_NET g52531_db 1
*END

*D_NET g52531_sb 1