*SPEF "IEEE 1481-1998"
*DESIGN "design-name"
*DATE "Mon Oct 31 16:51:35 2011"
*VENDOR "ISPD 2012 Contest"
*PROGRAM "Benchmark Parasitic Generator"
*VERSION "0.0"
*DESIGN_FLOW "NETLIST_TYPE_VERILOG"
*DIVIDER /
*DELIMITER :
*BUS_DELIMITER [ ]
*T_UNIT 1 PS
*C_UNIT 1 FF
*R_UNIT 1 KOHM
*L_UNIT 1 UH


*D_NET ispd_clk 0.0
*END

*D_NET pci_ad_i_0_ 1
*END

*D_NET pci_ad_i_10_ 1
*END

*D_NET pci_ad_i_11_ 1
*END

*D_NET pci_ad_i_12_ 1
*END

*D_NET pci_ad_i_13_ 1
*END

*D_NET pci_ad_i_14_ 1
*END

*D_NET pci_ad_i_15_ 1
*END

*D_NET pci_ad_i_16_ 1
*END

*D_NET pci_ad_i_17_ 1
*END

*D_NET pci_ad_i_18_ 1
*END

*D_NET pci_ad_i_19_ 1
*END

*D_NET pci_ad_i_1_ 1
*END

*D_NET pci_ad_i_20_ 1
*END

*D_NET pci_ad_i_21_ 1
*END

*D_NET pci_ad_i_22_ 1
*END

*D_NET pci_ad_i_23_ 1
*END

*D_NET pci_ad_i_24_ 1
*END

*D_NET pci_ad_i_25_ 1
*END

*D_NET pci_ad_i_26_ 1
*END

*D_NET pci_ad_i_27_ 1
*END

*D_NET pci_ad_i_28_ 1
*END

*D_NET pci_ad_i_29_ 1
*END

*D_NET pci_ad_i_2_ 1
*END

*D_NET pci_ad_i_30_ 1
*END

*D_NET pci_ad_i_31_ 1
*END

*D_NET pci_ad_i_3_ 1
*END

*D_NET pci_ad_i_4_ 1
*END

*D_NET pci_ad_i_5_ 1
*END

*D_NET pci_ad_i_6_ 1
*END

*D_NET pci_ad_i_7_ 1
*END

*D_NET pci_ad_i_8_ 1
*END

*D_NET pci_ad_i_9_ 1
*END

*D_NET pci_cbe_i_0_ 1
*END

*D_NET pci_cbe_i_1_ 1
*END

*D_NET pci_cbe_i_2_ 1
*END

*D_NET pci_cbe_i_3_ 1
*END

*D_NET pci_devsel_i 1
*END

*D_NET pci_frame_i 1
*END

*D_NET pci_gnt_i 3
*END

*D_NET pci_idsel_i 1
*END

*D_NET pci_irdy_i 1
*END

*D_NET pci_par_i 1
*END

*D_NET pci_perr_i 1
*END

*D_NET pci_rst_i 1
*END

*D_NET pci_rst_oe_o 1
*END

*D_NET pci_stop_i 1
*END

*D_NET pci_trdy_i 1
*END

*D_NET wb_int_i 1
*END

*D_NET wbm_ack_i 6
*END

*D_NET wbm_dat_i_0_ 1
*END

*D_NET wbm_dat_i_10_ 1
*END

*D_NET wbm_dat_i_11_ 1
*END

*D_NET wbm_dat_i_12_ 1
*END

*D_NET wbm_dat_i_13_ 1
*END

*D_NET wbm_dat_i_14_ 1
*END

*D_NET wbm_dat_i_15_ 1
*END

*D_NET wbm_dat_i_16_ 1
*END

*D_NET wbm_dat_i_17_ 1
*END

*D_NET wbm_dat_i_18_ 1
*END

*D_NET wbm_dat_i_19_ 1
*END

*D_NET wbm_dat_i_1_ 1
*END

*D_NET wbm_dat_i_20_ 1
*END

*D_NET wbm_dat_i_21_ 1
*END

*D_NET wbm_dat_i_22_ 1
*END

*D_NET wbm_dat_i_23_ 1
*END

*D_NET wbm_dat_i_24_ 1
*END

*D_NET wbm_dat_i_25_ 1
*END

*D_NET wbm_dat_i_26_ 1
*END

*D_NET wbm_dat_i_27_ 1
*END

*D_NET wbm_dat_i_28_ 1
*END

*D_NET wbm_dat_i_29_ 1
*END

*D_NET wbm_dat_i_2_ 1
*END

*D_NET wbm_dat_i_30_ 1
*END

*D_NET wbm_dat_i_31_ 1
*END

*D_NET wbm_dat_i_3_ 1
*END

*D_NET wbm_dat_i_4_ 1
*END

*D_NET wbm_dat_i_5_ 1
*END

*D_NET wbm_dat_i_6_ 1
*END

*D_NET wbm_dat_i_7_ 1
*END

*D_NET wbm_dat_i_8_ 1
*END

*D_NET wbm_dat_i_9_ 1
*END

*D_NET wbm_err_i 4
*END

*D_NET wbm_rty_i 10
*END

*D_NET wbs_adr_i_0_ 1
*END

*D_NET wbs_adr_i_10_ 1
*END

*D_NET wbs_adr_i_11_ 1
*END

*D_NET wbs_adr_i_12_ 1
*END

*D_NET wbs_adr_i_13_ 1
*END

*D_NET wbs_adr_i_14_ 1
*END

*D_NET wbs_adr_i_15_ 1
*END

*D_NET wbs_adr_i_16_ 1
*END

*D_NET wbs_adr_i_17_ 1
*END

*D_NET wbs_adr_i_18_ 1
*END

*D_NET wbs_adr_i_19_ 1
*END

*D_NET wbs_adr_i_1_ 1
*END

*D_NET wbs_adr_i_20_ 1
*END

*D_NET wbs_adr_i_21_ 1
*END

*D_NET wbs_adr_i_22_ 1
*END

*D_NET wbs_adr_i_23_ 1
*END

*D_NET wbs_adr_i_24_ 1
*END

*D_NET wbs_adr_i_25_ 1
*END

*D_NET wbs_adr_i_26_ 1
*END

*D_NET wbs_adr_i_27_ 1
*END

*D_NET wbs_adr_i_28_ 1
*END

*D_NET wbs_adr_i_29_ 1
*END

*D_NET wbs_adr_i_2_ 2
*END

*D_NET wbs_adr_i_30_ 1
*END

*D_NET wbs_adr_i_31_ 1
*END

*D_NET wbs_adr_i_3_ 2
*END

*D_NET wbs_adr_i_4_ 2
*END

*D_NET wbs_adr_i_5_ 2
*END

*D_NET wbs_adr_i_6_ 1
*END

*D_NET wbs_adr_i_7_ 1
*END

*D_NET wbs_adr_i_8_ 1
*END

*D_NET wbs_adr_i_9_ 1
*END

*D_NET wbs_bte_i_0_ 3
*END

*D_NET wbs_bte_i_1_ 3
*END

*D_NET wbs_cti_i_0_ 2
*END

*D_NET wbs_cti_i_1_ 1
*END

*D_NET wbs_cti_i_2_ 2
*END

*D_NET wbs_cyc_i 2
*END

*D_NET wbs_dat_i_0_ 1
*END

*D_NET wbs_dat_i_10_ 1
*END

*D_NET wbs_dat_i_11_ 1
*END

*D_NET wbs_dat_i_12_ 1
*END

*D_NET wbs_dat_i_13_ 1
*END

*D_NET wbs_dat_i_14_ 1
*END

*D_NET wbs_dat_i_15_ 1
*END

*D_NET wbs_dat_i_16_ 1
*END

*D_NET wbs_dat_i_17_ 1
*END

*D_NET wbs_dat_i_18_ 1
*END

*D_NET wbs_dat_i_19_ 1
*END

*D_NET wbs_dat_i_1_ 1
*END

*D_NET wbs_dat_i_20_ 1
*END

*D_NET wbs_dat_i_21_ 1
*END

*D_NET wbs_dat_i_22_ 1
*END

*D_NET wbs_dat_i_23_ 1
*END

*D_NET wbs_dat_i_24_ 1
*END

*D_NET wbs_dat_i_25_ 1
*END

*D_NET wbs_dat_i_26_ 1
*END

*D_NET wbs_dat_i_27_ 1
*END

*D_NET wbs_dat_i_28_ 1
*END

*D_NET wbs_dat_i_29_ 1
*END

*D_NET wbs_dat_i_2_ 1
*END

*D_NET wbs_dat_i_30_ 1
*END

*D_NET wbs_dat_i_31_ 1
*END

*D_NET wbs_dat_i_3_ 1
*END

*D_NET wbs_dat_i_4_ 1
*END

*D_NET wbs_dat_i_5_ 1
*END

*D_NET wbs_dat_i_6_ 1
*END

*D_NET wbs_dat_i_7_ 1
*END

*D_NET wbs_dat_i_8_ 1
*END

*D_NET wbs_dat_i_9_ 1
*END

*D_NET wbs_sel_i_0_ 1
*END

*D_NET wbs_sel_i_1_ 1
*END

*D_NET wbs_sel_i_2_ 1
*END

*D_NET wbs_sel_i_3_ 1
*END

*D_NET wbs_stb_i 5
*END

*D_NET wbs_we_i 2
*END

*D_NET pci_ad_o_0_ 2
*END

*D_NET pci_ad_o_10_ 2
*END

*D_NET pci_ad_o_11_ 2
*END

*D_NET pci_ad_o_12_ 2
*END

*D_NET pci_ad_o_13_ 2
*END

*D_NET pci_ad_o_14_ 2
*END

*D_NET pci_ad_o_15_ 2
*END

*D_NET pci_ad_o_16_ 2
*END

*D_NET pci_ad_o_17_ 2
*END

*D_NET pci_ad_o_18_ 2
*END

*D_NET pci_ad_o_19_ 2
*END

*D_NET pci_ad_o_1_ 2
*END

*D_NET pci_ad_o_20_ 2
*END

*D_NET pci_ad_o_21_ 2
*END

*D_NET pci_ad_o_22_ 2
*END

*D_NET pci_ad_o_23_ 2
*END

*D_NET pci_ad_o_24_ 2
*END

*D_NET pci_ad_o_25_ 2
*END

*D_NET pci_ad_o_26_ 2
*END

*D_NET pci_ad_o_27_ 2
*END

*D_NET pci_ad_o_28_ 2
*END

*D_NET pci_ad_o_29_ 2
*END

*D_NET pci_ad_o_2_ 2
*END

*D_NET pci_ad_o_30_ 2
*END

*D_NET pci_ad_o_31_ 2
*END

*D_NET pci_ad_o_3_ 2
*END

*D_NET pci_ad_o_4_ 2
*END

*D_NET pci_ad_o_5_ 2
*END

*D_NET pci_ad_o_6_ 2
*END

*D_NET pci_ad_o_7_ 2
*END

*D_NET pci_ad_o_8_ 2
*END

*D_NET pci_ad_o_9_ 2
*END

*D_NET pci_ad_oe_o_0_ 1
*END

*D_NET pci_ad_oe_o_10_ 1
*END

*D_NET pci_ad_oe_o_11_ 1
*END

*D_NET pci_ad_oe_o_12_ 1
*END

*D_NET pci_ad_oe_o_13_ 1
*END

*D_NET pci_ad_oe_o_14_ 1
*END

*D_NET pci_ad_oe_o_15_ 1
*END

*D_NET pci_ad_oe_o_16_ 1
*END

*D_NET pci_ad_oe_o_17_ 1
*END

*D_NET pci_ad_oe_o_18_ 1
*END

*D_NET pci_ad_oe_o_19_ 1
*END

*D_NET pci_ad_oe_o_1_ 1
*END

*D_NET pci_ad_oe_o_20_ 1
*END

*D_NET pci_ad_oe_o_21_ 1
*END

*D_NET pci_ad_oe_o_22_ 1
*END

*D_NET pci_ad_oe_o_23_ 1
*END

*D_NET pci_ad_oe_o_24_ 1
*END

*D_NET pci_ad_oe_o_25_ 1
*END

*D_NET pci_ad_oe_o_26_ 1
*END

*D_NET pci_ad_oe_o_27_ 1
*END

*D_NET pci_ad_oe_o_28_ 1
*END

*D_NET pci_ad_oe_o_29_ 1
*END

*D_NET pci_ad_oe_o_2_ 1
*END

*D_NET pci_ad_oe_o_30_ 1
*END

*D_NET pci_ad_oe_o_31_ 1
*END

*D_NET pci_ad_oe_o_3_ 1
*END

*D_NET pci_ad_oe_o_4_ 1
*END

*D_NET pci_ad_oe_o_5_ 1
*END

*D_NET pci_ad_oe_o_6_ 1
*END

*D_NET pci_ad_oe_o_7_ 1
*END

*D_NET pci_ad_oe_o_8_ 1
*END

*D_NET pci_ad_oe_o_9_ 1
*END

*D_NET pci_cbe_o_0_ 2
*END

*D_NET pci_cbe_o_1_ 2
*END

*D_NET pci_cbe_o_2_ 2
*END

*D_NET pci_cbe_o_3_ 2
*END

*D_NET pci_cbe_oe_o_0_ 1
*END

*D_NET pci_cbe_oe_o_1_ 1
*END

*D_NET pci_cbe_oe_o_2_ 1
*END

*D_NET pci_cbe_oe_o_3_ 1
*END

*D_NET pci_devsel_o 1
*END

*D_NET pci_devsel_oe_o 1
*END

*D_NET pci_frame_o 2
*END

*D_NET pci_frame_oe_o 1
*END

*D_NET pci_inta_oe_o 2
*END

*D_NET pci_irdy_o 1
*END

*D_NET pci_irdy_oe_o 1
*END

*D_NET pci_par_o 1
*END

*D_NET pci_par_oe_o 1
*END

*D_NET pci_perr_o 1
*END

*D_NET pci_perr_oe_o 1
*END

*D_NET pci_req_o 1
*END

*D_NET pci_req_oe_o 1
*END

*D_NET pci_serr_o 1
*END

*D_NET pci_serr_oe_o 1
*END

*D_NET pci_stop_o 1
*END

*D_NET pci_stop_oe_o 1
*END

*D_NET pci_trdy_o 1
*END

*D_NET pci_trdy_oe_o 1
*END

*D_NET wb_rst_o 1
*END

*D_NET wbm_adr_o_0_ 3
*END

*D_NET wbm_adr_o_10_ 7
*END

*D_NET wbm_adr_o_11_ 7
*END

*D_NET wbm_adr_o_12_ 7
*END

*D_NET wbm_adr_o_13_ 7
*END

*D_NET wbm_adr_o_14_ 7
*END

*D_NET wbm_adr_o_15_ 7
*END

*D_NET wbm_adr_o_16_ 7
*END

*D_NET wbm_adr_o_17_ 7
*END

*D_NET wbm_adr_o_18_ 7
*END

*D_NET wbm_adr_o_19_ 7
*END

*D_NET wbm_adr_o_1_ 3
*END

*D_NET wbm_adr_o_20_ 7
*END

*D_NET wbm_adr_o_21_ 7
*END

*D_NET wbm_adr_o_22_ 7
*END

*D_NET wbm_adr_o_23_ 7
*END

*D_NET wbm_adr_o_24_ 7
*END

*D_NET wbm_adr_o_25_ 7
*END

*D_NET wbm_adr_o_26_ 7
*END

*D_NET wbm_adr_o_27_ 7
*END

*D_NET wbm_adr_o_28_ 7
*END

*D_NET wbm_adr_o_29_ 7
*END

*D_NET wbm_adr_o_2_ 9
*END

*D_NET wbm_adr_o_30_ 6
*END

*D_NET wbm_adr_o_31_ 5
*END

*D_NET wbm_adr_o_3_ 7
*END

*D_NET wbm_adr_o_4_ 8
*END

*D_NET wbm_adr_o_5_ 8
*END

*D_NET wbm_adr_o_6_ 7
*END

*D_NET wbm_adr_o_7_ 7
*END

*D_NET wbm_adr_o_8_ 7
*END

*D_NET wbm_adr_o_9_ 7
*END

*D_NET wbm_cti_o_0_ 3
*END

*D_NET wbm_cti_o_1_ 3
*END

*D_NET wbm_cti_o_2_ 3
*END

*D_NET wbm_cyc_o 2
*END

*D_NET wbm_dat_o_0_ 4
*END

*D_NET wbm_dat_o_10_ 4
*END

*D_NET wbm_dat_o_11_ 4
*END

*D_NET wbm_dat_o_12_ 4
*END

*D_NET wbm_dat_o_13_ 4
*END

*D_NET wbm_dat_o_14_ 4
*END

*D_NET wbm_dat_o_15_ 4
*END

*D_NET wbm_dat_o_16_ 4
*END

*D_NET wbm_dat_o_17_ 4
*END

*D_NET wbm_dat_o_18_ 4
*END

*D_NET wbm_dat_o_19_ 4
*END

*D_NET wbm_dat_o_1_ 4
*END

*D_NET wbm_dat_o_20_ 4
*END

*D_NET wbm_dat_o_21_ 4
*END

*D_NET wbm_dat_o_22_ 4
*END

*D_NET wbm_dat_o_23_ 4
*END

*D_NET wbm_dat_o_24_ 4
*END

*D_NET wbm_dat_o_25_ 4
*END

*D_NET wbm_dat_o_26_ 4
*END

*D_NET wbm_dat_o_27_ 4
*END

*D_NET wbm_dat_o_28_ 4
*END

*D_NET wbm_dat_o_29_ 4
*END

*D_NET wbm_dat_o_2_ 4
*END

*D_NET wbm_dat_o_30_ 4
*END

*D_NET wbm_dat_o_31_ 4
*END

*D_NET wbm_dat_o_3_ 4
*END

*D_NET wbm_dat_o_4_ 4
*END

*D_NET wbm_dat_o_5_ 4
*END

*D_NET wbm_dat_o_6_ 4
*END

*D_NET wbm_dat_o_7_ 4
*END

*D_NET wbm_dat_o_8_ 4
*END

*D_NET wbm_dat_o_9_ 4
*END

*D_NET wbm_sel_o_0_ 4
*END

*D_NET wbm_sel_o_1_ 4
*END

*D_NET wbm_sel_o_2_ 4
*END

*D_NET wbm_sel_o_3_ 4
*END

*D_NET wbm_stb_o 2
*END

*D_NET wbm_we_o 1
*END

*D_NET wbs_ack_o 4
*END

*D_NET wbs_dat_o_0_ 2
*END

*D_NET wbs_dat_o_10_ 2
*END

*D_NET wbs_dat_o_11_ 2
*END

*D_NET wbs_dat_o_12_ 2
*END

*D_NET wbs_dat_o_13_ 2
*END

*D_NET wbs_dat_o_14_ 2
*END

*D_NET wbs_dat_o_15_ 2
*END

*D_NET wbs_dat_o_16_ 2
*END

*D_NET wbs_dat_o_17_ 2
*END

*D_NET wbs_dat_o_18_ 2
*END

*D_NET wbs_dat_o_19_ 2
*END

*D_NET wbs_dat_o_1_ 2
*END

*D_NET wbs_dat_o_20_ 2
*END

*D_NET wbs_dat_o_21_ 2
*END

*D_NET wbs_dat_o_22_ 2
*END

*D_NET wbs_dat_o_23_ 2
*END

*D_NET wbs_dat_o_24_ 2
*END

*D_NET wbs_dat_o_25_ 2
*END

*D_NET wbs_dat_o_26_ 2
*END

*D_NET wbs_dat_o_27_ 2
*END

*D_NET wbs_dat_o_28_ 2
*END

*D_NET wbs_dat_o_29_ 2
*END

*D_NET wbs_dat_o_2_ 2
*END

*D_NET wbs_dat_o_30_ 2
*END

*D_NET wbs_dat_o_31_ 2
*END

*D_NET wbs_dat_o_3_ 2
*END

*D_NET wbs_dat_o_4_ 2
*END

*D_NET wbs_dat_o_5_ 2
*END

*D_NET wbs_dat_o_6_ 2
*END

*D_NET wbs_dat_o_7_ 2
*END

*D_NET wbs_dat_o_8_ 2
*END

*D_NET wbs_dat_o_9_ 2
*END

*D_NET wbs_err_o 4
*END

*D_NET wbs_rty_o 4
*END

*D_NET conf_pci_err_bc_in 1
*END

*D_NET conf_pci_err_bc_in_914 1
*END

*D_NET conf_pci_err_bc_in_915 1
*END

*D_NET conf_pci_err_bc_in_916 1
*END

*D_NET conf_pci_init_complete_out 20
*END

*D_NET conf_target_abort_recv_in 1
*END

*D_NET conf_w_addr_in 5
*END

*D_NET conf_w_addr_in_931 3
*END

*D_NET conf_w_addr_in_932 1
*END

*D_NET conf_w_addr_in_933 1
*END

*D_NET conf_w_addr_in_935 1
*END

*D_NET conf_w_addr_in_937 1
*END

*D_NET conf_w_addr_in_938 4
*END

*D_NET conf_w_addr_in_939 1
*END

*D_NET conf_wb_err_addr_in_943 9
*END

*D_NET conf_wb_err_addr_in_944 7
*END

*D_NET conf_wb_err_addr_in_945 8
*END

*D_NET conf_wb_err_addr_in_946 7
*END

*D_NET conf_wb_err_addr_in_947 7
*END

*D_NET conf_wb_err_addr_in_948 7
*END

*D_NET conf_wb_err_addr_in_949 7
*END

*D_NET conf_wb_err_addr_in_950 9
*END

*D_NET conf_wb_err_addr_in_951 7
*END

*D_NET conf_wb_err_addr_in_952 7
*END

*D_NET conf_wb_err_addr_in_953 7
*END

*D_NET conf_wb_err_addr_in_954 7
*END

*D_NET conf_wb_err_addr_in_955 8
*END

*D_NET conf_wb_err_addr_in_956 7
*END

*D_NET conf_wb_err_addr_in_957 7
*END

*D_NET conf_wb_err_addr_in_958 7
*END

*D_NET conf_wb_err_addr_in_959 7
*END

*D_NET conf_wb_err_addr_in_960 7
*END

*D_NET conf_wb_err_addr_in_961 7
*END

*D_NET conf_wb_err_addr_in_962 7
*END

*D_NET conf_wb_err_addr_in_963 7
*END

*D_NET conf_wb_err_addr_in_964 7
*END

*D_NET conf_wb_err_addr_in_965 7
*END

*D_NET conf_wb_err_addr_in_966 7
*END

*D_NET conf_wb_err_addr_in_967 7
*END

*D_NET conf_wb_err_addr_in_968 7
*END

*D_NET conf_wb_err_addr_in_969 7
*END

*D_NET conf_wb_err_addr_in_970 7
*END

*D_NET conf_wb_err_addr_in_971 6
*END

*D_NET conf_wb_err_addr_in_972 1
*END

*D_NET conf_wb_err_bc_in 8
*END

*D_NET conf_wb_err_bc_in_846 7
*END

*D_NET conf_wb_err_bc_in_847 6
*END

*D_NET conf_wb_err_bc_in_848 7
*END

*D_NET configuration_block_set_isr_bit2 1
*END

*D_NET configuration_block_set_pci_err_cs_bit8 1
*END

*D_NET configuration_cache_line_size_reg 3
*END

*D_NET configuration_cache_line_size_reg_2996 3
*END

*D_NET configuration_command_bit 3
*END

*D_NET configuration_icr_bit2_0 3
*END

*D_NET configuration_icr_bit_2961 3
*END

*D_NET configuration_icr_bit_2967 3
*END

*D_NET configuration_int_meta 1
*END

*D_NET configuration_interrupt_line 2
*END

*D_NET configuration_interrupt_line_37 2
*END

*D_NET configuration_interrupt_line_38 2
*END

*D_NET configuration_interrupt_line_39 3
*END

*D_NET configuration_interrupt_line_40 3
*END

*D_NET configuration_interrupt_line_41 3
*END

*D_NET configuration_interrupt_line_42 2
*END

*D_NET configuration_interrupt_line_43 3
*END

*D_NET configuration_interrupt_out_reg_Q 1
*END

*D_NET configuration_isr_bit_1457 1
*END

*D_NET configuration_isr_bit_1461 1
*END

*D_NET configuration_isr_bit_2975 3
*END

*D_NET configuration_isr_bit_618 1
*END

*D_NET configuration_isr_bit_631 1
*END

*D_NET configuration_meta_cache_lsize_to_wb_bits 1
*END

*D_NET configuration_meta_cache_lsize_to_wb_bits_926 1
*END

*D_NET configuration_meta_cache_lsize_to_wb_bits_927 1
*END

*D_NET configuration_meta_cache_lsize_to_wb_bits_928 1
*END

*D_NET configuration_meta_cache_lsize_to_wb_bits_929 1
*END

*D_NET configuration_meta_cache_lsize_to_wb_bits_930 1
*END

*D_NET configuration_meta_cache_lsize_to_wb_bits_931 1
*END

*D_NET configuration_meta_command_bit 1
*END

*D_NET configuration_meta_pci_err_cs_bits 1
*END

*D_NET configuration_pci_err_addr 2
*END

*D_NET configuration_pci_err_addr_471 2
*END

*D_NET configuration_pci_err_addr_472 2
*END

*D_NET configuration_pci_err_addr_473 2
*END

*D_NET configuration_pci_err_addr_474 2
*END

*D_NET configuration_pci_err_addr_475 2
*END

*D_NET configuration_pci_err_addr_476 2
*END

*D_NET configuration_pci_err_addr_477 2
*END

*D_NET configuration_pci_err_addr_478 2
*END

*D_NET configuration_pci_err_addr_479 2
*END

*D_NET configuration_pci_err_addr_480 2
*END

*D_NET configuration_pci_err_addr_481 2
*END

*D_NET configuration_pci_err_addr_482 2
*END

*D_NET configuration_pci_err_addr_483 2
*END

*D_NET configuration_pci_err_addr_484 2
*END

*D_NET configuration_pci_err_addr_485 2
*END

*D_NET configuration_pci_err_addr_486 2
*END

*D_NET configuration_pci_err_addr_487 2
*END

*D_NET configuration_pci_err_addr_488 2
*END

*D_NET configuration_pci_err_addr_489 2
*END

*D_NET configuration_pci_err_addr_490 2
*END

*D_NET configuration_pci_err_addr_491 2
*END

*D_NET configuration_pci_err_addr_492 2
*END

*D_NET configuration_pci_err_addr_493 2
*END

*D_NET configuration_pci_err_addr_494 2
*END

*D_NET configuration_pci_err_addr_495 2
*END

*D_NET configuration_pci_err_addr_496 2
*END

*D_NET configuration_pci_err_addr_497 2
*END

*D_NET configuration_pci_err_addr_498 2
*END

*D_NET configuration_pci_err_addr_499 2
*END

*D_NET configuration_pci_err_addr_500 2
*END

*D_NET configuration_pci_err_addr_501 2
*END

*D_NET configuration_pci_err_cs_bit0 3
*END

*D_NET configuration_pci_err_cs_bit10 2
*END

*D_NET configuration_pci_err_cs_bit31_24 2
*END

*D_NET configuration_pci_err_cs_bit8 1
*END

*D_NET configuration_pci_err_cs_bit9 2
*END

*D_NET configuration_pci_err_cs_bit_464 2
*END

*D_NET configuration_pci_err_cs_bit_465 2
*END

*D_NET configuration_pci_err_cs_bit_466 2
*END

*D_NET configuration_pci_err_cs_bit_467 2
*END

*D_NET configuration_pci_err_cs_bit_468 2
*END

*D_NET configuration_pci_err_cs_bit_469 2
*END

*D_NET configuration_pci_err_cs_bit_470 2
*END

*D_NET configuration_pci_err_data 2
*END

*D_NET configuration_pci_err_data_502 2
*END

*D_NET configuration_pci_err_data_503 2
*END

*D_NET configuration_pci_err_data_504 2
*END

*D_NET configuration_pci_err_data_505 2
*END

*D_NET configuration_pci_err_data_506 2
*END

*D_NET configuration_pci_err_data_507 2
*END

*D_NET configuration_pci_err_data_508 2
*END

*D_NET configuration_pci_err_data_509 2
*END

*D_NET configuration_pci_err_data_510 2
*END

*D_NET configuration_pci_err_data_511 2
*END

*D_NET configuration_pci_err_data_512 2
*END

*D_NET configuration_pci_err_data_513 2
*END

*D_NET configuration_pci_err_data_514 2
*END

*D_NET configuration_pci_err_data_515 2
*END

*D_NET configuration_pci_err_data_516 2
*END

*D_NET configuration_pci_err_data_517 2
*END

*D_NET configuration_pci_err_data_518 2
*END

*D_NET configuration_pci_err_data_519 2
*END

*D_NET configuration_pci_err_data_520 2
*END

*D_NET configuration_pci_err_data_521 2
*END

*D_NET configuration_pci_err_data_522 2
*END

*D_NET configuration_pci_err_data_523 2
*END

*D_NET configuration_pci_err_data_524 2
*END

*D_NET configuration_pci_err_data_525 2
*END

*D_NET configuration_pci_err_data_526 2
*END

*D_NET configuration_pci_err_data_527 2
*END

*D_NET configuration_pci_err_data_528 2
*END

*D_NET configuration_pci_err_data_529 2
*END

*D_NET configuration_pci_err_data_530 2
*END

*D_NET configuration_pci_err_data_531 2
*END

*D_NET configuration_pci_err_data_532 2
*END

*D_NET configuration_rst_inactive 1
*END

*D_NET configuration_rst_inactive_sync 1
*END

*D_NET configuration_set_isr_bit2 2
*END

*D_NET configuration_set_isr_bit2_reg_Q 1
*END

*D_NET configuration_set_pci_err_cs_bit8 2
*END

*D_NET configuration_set_pci_err_cs_bit8_reg_Q 1
*END

*D_NET configuration_status_bit8 2
*END

*D_NET configuration_status_bit_322 2
*END

*D_NET configuration_status_bit_351 2
*END

*D_NET configuration_status_bit_379 2
*END

*D_NET configuration_status_bit_407 2
*END

*D_NET configuration_status_bit_435 2
*END

*D_NET configuration_sync_cache_lsize_to_wb_bits_reg_2__Q 1
*END

*D_NET configuration_sync_cache_lsize_to_wb_bits_reg_3__Q 1
*END

*D_NET configuration_sync_cache_lsize_to_wb_bits_reg_4__Q 1
*END

*D_NET configuration_sync_command_bit0 3
*END

*D_NET configuration_sync_command_bit1 3
*END

*D_NET configuration_sync_command_bit2 2
*END

*D_NET configuration_sync_command_bit6 3
*END

*D_NET configuration_sync_command_bit8 3
*END

*D_NET configuration_sync_init_complete 1
*END

*D_NET configuration_sync_isr_2_del_bit_reg_Q 1
*END

*D_NET configuration_sync_isr_2_delayed_bckp_bit 1
*END

*D_NET configuration_sync_isr_2_delayed_bckp_bit_reg_Q 1
*END

*D_NET configuration_sync_isr_2_delayed_del_bit 1
*END

*D_NET configuration_sync_isr_2_delayed_del_bit_reg_Q 1
*END

*D_NET configuration_sync_isr_2_meta_bckp_bit 1
*END

*D_NET configuration_sync_isr_2_meta_del_bit 1
*END

*D_NET configuration_sync_isr_2_sync_bckp_bit 2
*END

*D_NET configuration_sync_isr_2_sync_del_bit 3
*END

*D_NET configuration_sync_pci_err_cs_8_del_bit_reg_Q 1
*END

*D_NET configuration_sync_pci_err_cs_8_delayed_bckp_bit 1
*END

*D_NET configuration_sync_pci_err_cs_8_delayed_bckp_bit_reg_Q 1
*END

*D_NET configuration_sync_pci_err_cs_8_delayed_del_bit 1
*END

*D_NET configuration_sync_pci_err_cs_8_delayed_del_bit_reg_Q 1
*END

*D_NET configuration_sync_pci_err_cs_8_meta_bckp_bit 1
*END

*D_NET configuration_sync_pci_err_cs_8_meta_del_bit 1
*END

*D_NET configuration_sync_pci_err_cs_8_sync_bckp_bit 2
*END

*D_NET configuration_sync_pci_err_cs_8_sync_del_bit 3
*END

*D_NET configuration_wb_err_addr 2
*END

*D_NET configuration_wb_err_addr_533 2
*END

*D_NET configuration_wb_err_addr_534 2
*END

*D_NET configuration_wb_err_addr_535 2
*END

*D_NET configuration_wb_err_addr_536 2
*END

*D_NET configuration_wb_err_addr_537 2
*END

*D_NET configuration_wb_err_addr_538 2
*END

*D_NET configuration_wb_err_addr_539 2
*END

*D_NET configuration_wb_err_addr_540 2
*END

*D_NET configuration_wb_err_addr_541 2
*END

*D_NET configuration_wb_err_addr_542 2
*END

*D_NET configuration_wb_err_addr_543 2
*END

*D_NET configuration_wb_err_addr_544 2
*END

*D_NET configuration_wb_err_addr_545 2
*END

*D_NET configuration_wb_err_addr_546 2
*END

*D_NET configuration_wb_err_addr_547 2
*END

*D_NET configuration_wb_err_addr_548 2
*END

*D_NET configuration_wb_err_addr_549 2
*END

*D_NET configuration_wb_err_addr_550 2
*END

*D_NET configuration_wb_err_addr_551 2
*END

*D_NET configuration_wb_err_addr_552 2
*END

*D_NET configuration_wb_err_addr_553 2
*END

*D_NET configuration_wb_err_addr_554 2
*END

*D_NET configuration_wb_err_addr_555 2
*END

*D_NET configuration_wb_err_addr_556 2
*END

*D_NET configuration_wb_err_addr_557 2
*END

*D_NET configuration_wb_err_addr_558 2
*END

*D_NET configuration_wb_err_addr_559 2
*END

*D_NET configuration_wb_err_addr_560 2
*END

*D_NET configuration_wb_err_addr_561 2
*END

*D_NET configuration_wb_err_addr_562 2
*END

*D_NET configuration_wb_err_addr_563 2
*END

*D_NET configuration_wb_err_cs_bit0 4
*END

*D_NET configuration_wb_err_cs_bit31_24 2
*END

*D_NET configuration_wb_err_cs_bit8 2
*END

*D_NET configuration_wb_err_cs_bit9 2
*END

*D_NET configuration_wb_err_cs_bit_564 2
*END

*D_NET configuration_wb_err_cs_bit_565 2
*END

*D_NET configuration_wb_err_cs_bit_566 2
*END

*D_NET configuration_wb_err_cs_bit_567 2
*END

*D_NET configuration_wb_err_cs_bit_568 2
*END

*D_NET configuration_wb_err_cs_bit_569 2
*END

*D_NET configuration_wb_err_cs_bit_570 2
*END

*D_NET configuration_wb_err_data 2
*END

*D_NET configuration_wb_err_data_571 2
*END

*D_NET configuration_wb_err_data_572 2
*END

*D_NET configuration_wb_err_data_573 2
*END

*D_NET configuration_wb_err_data_574 2
*END

*D_NET configuration_wb_err_data_575 2
*END

*D_NET configuration_wb_err_data_576 2
*END

*D_NET configuration_wb_err_data_577 2
*END

*D_NET configuration_wb_err_data_578 2
*END

*D_NET configuration_wb_err_data_579 2
*END

*D_NET configuration_wb_err_data_580 2
*END

*D_NET configuration_wb_err_data_581 2
*END

*D_NET configuration_wb_err_data_582 2
*END

*D_NET configuration_wb_err_data_583 2
*END

*D_NET configuration_wb_err_data_584 2
*END

*D_NET configuration_wb_err_data_585 2
*END

*D_NET configuration_wb_err_data_586 2
*END

*D_NET configuration_wb_err_data_587 2
*END

*D_NET configuration_wb_err_data_588 2
*END

*D_NET configuration_wb_err_data_589 2
*END

*D_NET configuration_wb_err_data_590 2
*END

*D_NET configuration_wb_err_data_591 2
*END

*D_NET configuration_wb_err_data_592 2
*END

*D_NET configuration_wb_err_data_593 2
*END

*D_NET configuration_wb_err_data_594 2
*END

*D_NET configuration_wb_err_data_595 2
*END

*D_NET configuration_wb_err_data_596 2
*END

*D_NET configuration_wb_err_data_597 2
*END

*D_NET configuration_wb_err_data_598 2
*END

*D_NET configuration_wb_err_data_599 2
*END

*D_NET configuration_wb_err_data_600 2
*END

*D_NET configuration_wb_err_data_601 2
*END

*D_NET g15_p 1
*END

*D_NET g17_p 1
*END

*D_NET g20_dup74712_da 1
*END

*D_NET g20_dup74712_db 1
*END

*D_NET g20_dup74712_sb 1
*END

*D_NET g22_p 1
*END

*D_NET g3_p 1
*END

*D_NET g52252_p 1
*END

*D_NET g52253_p 1
*END

*D_NET g52393_da 1
*END

*D_NET g52393_db 1
*END

*D_NET g52393_sb 1
*END

*D_NET g52394_da 1
*END

*D_NET g52394_db 1
*END

*D_NET g52394_sb 1
*END

*D_NET g52395_da 1
*END

*D_NET g52395_db 1
*END

*D_NET g52395_sb 1
*END

*D_NET g52396_da 1
*END

*D_NET g52396_db 1
*END

*D_NET g52396_sb 1
*END

*D_NET g52397_da 1
*END

*D_NET g52397_db 1
*END

*D_NET g52397_sb 1
*END

*D_NET g52398_da 1
*END

*D_NET g52398_db 1
*END

*D_NET g52398_sb 1
*END

*D_NET g52399_da 1
*END

*D_NET g52399_db 1
*END

*D_NET g52399_sb 1
*END

*D_NET g52400_da 1
*END

*D_NET g52400_db 1
*END

*D_NET g52400_sb 1
*END

*D_NET g52401_da 1
*END

*D_NET g52401_db 1
*END

*D_NET g52401_sb 1
*END

*D_NET g52402_da 1
*END

*D_NET g52402_db 1
*END

*D_NET g52402_sb 1
*END

*D_NET g52403_da 1
*END

*D_NET g52403_db 1
*END

*D_NET g52403_sb 1
*END

*D_NET g52404_da 1
*END

*D_NET g52404_db 1
*END

*D_NET g52404_sb 1
*END

*D_NET g52405_da 1
*END

*D_NET g52405_db 1
*END

*D_NET g52405_sb 1
*END

*D_NET g52439_da 1
*END

*D_NET g52439_db 1
*END

*D_NET g52439_sb 1
*END

*D_NET g52440_da 1
*END

*D_NET g52440_db 1
*END

*D_NET g52440_sb 1
*END

*D_NET g52441_da 1
*END

*D_NET g52441_db 1
*END

*D_NET g52441_sb 1
*END

*D_NET g52442_da 1
*END

*D_NET g52442_db 1
*END

*D_NET g52442_sb 1
*END

*D_NET g52443_da 1
*END

*D_NET g52443_db 1
*END

*D_NET g52443_sb 1
*END

*D_NET g52444_da 1
*END

*D_NET g52444_db 1
*END

*D_NET g52444_sb 1
*END

*D_NET g52445_da 1
*END

*D_NET g52445_db 1
*END

*D_NET g52445_sb 1
*END

*D_NET g52446_da 1
*END

*D_NET g52446_db 1
*END

*D_NET g52446_sb 1
*END

*D_NET g52447_da 1
*END

*D_NET g52447_db 1
*END

*D_NET g52447_sb 1
*END

*D_NET g52448_da 1
*END

*D_NET g52448_db 1
*END

*D_NET g52448_sb 1
*END

*D_NET g52449_da 1
*END

*D_NET g52449_db 1
*END

*D_NET g52449_sb 1
*END

*D_NET g52450_da 1
*END

*D_NET g52450_db 1
*END

*D_NET g52450_sb 1
*END

*D_NET g52451_da 1
*END

*D_NET g52451_db 1
*END

*D_NET g52451_sb 1
*END

*D_NET g52452_da 1
*END

*D_NET g52452_db 1
*END

*D_NET g52452_sb 1
*END

*D_NET g52453_da 1
*END

*D_NET g52453_db 1
*END

*D_NET g52453_sb 1
*END

*D_NET g52454_da 1
*END

*D_NET g52454_db 1
*END

*D_NET g52454_sb 1
*END

*D_NET g52455_da 1
*END

*D_NET g52455_db 1
*END

*D_NET g52455_sb 1
*END

*D_NET g52456_da 1
*END

*D_NET g52456_db 1
*END

*D_NET g52456_sb 1
*END

*D_NET g52457_da 1
*END

*D_NET g52457_db 1
*END

*D_NET g52457_sb 1
*END

*D_NET g52458_da 1
*END

*D_NET g52458_db 1
*END

*D_NET g52458_sb 1
*END

*D_NET g52459_da 1
*END

*D_NET g52459_db 1
*END

*D_NET g52459_sb 1
*END

*D_NET g52460_da 1
*END

*D_NET g52460_db 1
*END

*D_NET g52460_sb 1
*END

*D_NET g52461_da 1
*END

*D_NET g52461_db 1
*END

*D_NET g52461_sb 1
*END

*D_NET g52462_da 1
*END

*D_NET g52462_db 1
*END

*D_NET g52462_sb 1
*END

*D_NET g52463_da 1
*END

*D_NET g52463_db 1
*END

*D_NET g52463_sb 1
*END

*D_NET g52464_da 1
*END

*D_NET g52464_db 1
*END

*D_NET g52464_sb 1
*END

*D_NET g52465_da 1
*END

*D_NET g52465_db 1
*END

*D_NET g52465_sb 1
*END

*D_NET g52466_da 1
*END

*D_NET g52466_db 1
*END

*D_NET g52466_sb 1
*END

*D_NET g52467_da 1
*END

*D_NET g52467_db 1
*END

*D_NET g52467_sb 1
*END

*D_NET g52468_da 1
*END

*D_NET g52468_db 1
*END

*D_NET g52468_sb 1
*END

*D_NET g52469_da 1
*END

*D_NET g52469_db 1
*END

*D_NET g52469_sb 1
*END

*D_NET g52470_da 1
*END

*D_NET g52470_db 1
*END

*D_NET g52470_sb 1
*END

*D_NET g52471_da 1
*END

*D_NET g52471_db 1
*END

*D_NET g52471_sb 1
*END

*D_NET g52472_da 1
*END

*D_NET g52472_db 1
*END

*D_NET g52472_sb 1
*END

*D_NET g52473_da 1
*END

*D_NET g52473_db 1
*END

*D_NET g52473_sb 1
*END

*D_NET g52474_da 1
*END

*D_NET g52474_db 1
*END

*D_NET g52474_sb 1
*END

*D_NET g52475_da 1
*END

*D_NET g52475_db 1
*END

*D_NET g52475_sb 1
*END

*D_NET g52476_da 1
*END

*D_NET g52476_db 1
*END

*D_NET g52476_sb 1
*END

*D_NET g52477_da 1
*END

*D_NET g52477_db 1
*END

*D_NET g52477_sb 1
*END

*D_NET g52478_da 1
*END

*D_NET g52478_db 1
*END

*D_NET g52478_sb 1
*END

*D_NET g52479_da 1
*END

*D_NET g52479_db 1
*END

*D_NET g52479_sb 1
*END

*D_NET g52480_da 1
*END

*D_NET g52480_db 1
*END

*D_NET g52480_sb 1
*END

*D_NET g52481_da 1
*END

*D_NET g52481_db 1
*END

*D_NET g52481_sb 1
*END

*D_NET g52482_da 1
*END

*D_NET g52482_db 1
*END

*D_NET g52482_sb 1
*END

*D_NET g52483_da 1
*END

*D_NET g52483_db 1
*END

*D_NET g52483_sb 1
*END

*D_NET g52484_da 1
*END

*D_NET g52484_db 1
*END

*D_NET g52484_sb 1
*END

*D_NET g52485_da 1
*END

*D_NET g52485_db 1
*END

*D_NET g52485_sb 1
*END

*D_NET g52495_p 1
*END

*D_NET g52496_p 1
*END

*D_NET g52497_p 1
*END

*D_NET g52498_p 1
*END

*D_NET g52503_da 1
*END

*D_NET g52503_db 1
*END

*D_NET g52503_sb 1
*END

*D_NET g52504_da 1
*END

*D_NET g52504_db 1
*END

*D_NET g52504_sb 1
*END

*D_NET g52505_da 1
*END

*D_NET g52505_db 1
*END

*D_NET g52505_sb 1
*END

*D_NET g52506_da 1
*END

*D_NET g52506_db 1
*END

*D_NET g52506_sb 1
*END

*D_NET g52507_da 1
*END

*D_NET g52507_db 1
*END

*D_NET g52507_sb 1
*END

*D_NET g52508_da 1
*END

*D_NET g52508_db 1
*END

*D_NET g52508_sb 1
*END

*D_NET g52509_da 1
*END

*D_NET g52509_db 1
*END

*D_NET g52509_sb 1
*END

*D_NET g52510_da 1
*END

*D_NET g52510_db 1
*END

*D_NET g52510_sb 1
*END

*D_NET g52511_da 1
*END

*D_NET g52511_db 1
*END

*D_NET g52511_sb 1
*END

*D_NET g52512_da 1
*END

*D_NET g52512_db 1
*END

*D_NET g52512_sb 1
*END

*D_NET g52513_da 1
*END

*D_NET g52513_db 1
*END

*D_NET g52513_sb 1
*END

*D_NET g52514_da 1
*END

*D_NET g52514_db 1
*END

*D_NET g52514_sb 1
*END

*D_NET g52515_da 1
*END

*D_NET g52515_db 1
*END

*D_NET g52515_sb 1
*END

*D_NET g52516_da 1
*END

*D_NET g52516_db 1
*END

*D_NET g52516_sb 1
*END

*D_NET g52517_da 1
*END

*D_NET g52517_db 1
*END

*D_NET g52517_sb 1
*END

*D_NET g52518_da 1
*END

*D_NET g52518_db 1
*END

*D_NET g52518_sb 1
*END

*D_NET g52519_da 1
*END

*D_NET g52519_db 1
*END

*D_NET g52519_sb 1
*END

*D_NET g52520_da 1
*END

*D_NET g52520_db 1
*END

*D_NET g52520_sb 1
*END

*D_NET g52521_da 1
*END

*D_NET g52521_db 1
*END

*D_NET g52521_sb 1
*END

*D_NET g52522_da 1
*END

*D_NET g52522_db 1
*END

*D_NET g52522_sb 1
*END

*D_NET g52523_da 1
*END

*D_NET g52523_db 1
*END

*D_NET g52523_sb 1
*END

*D_NET g52524_da 1
*END

*D_NET g52524_db 1
*END

*D_NET g52524_sb 1
*END

*D_NET g52525_da 1
*END

*D_NET g52525_db 1
*END

*D_NET g52525_sb 1
*END

*D_NET g52526_da 1
*END

*D_NET g52526_db 1
*END

*D_NET g52526_sb 1
*END

*D_NET g52527_da 1
*END

*D_NET g52527_db 1
*END

*D_NET g52527_sb 1
*END

*D_NET g52528_da 1
*END

*D_NET g52528_db 1
*END

*D_NET g52528_sb 1
*END

*D_NET g52529_da 1
*END

*D_NET g52529_db 1
*END

*D_NET g52529_sb 1
*END

*D_NET g52530_da 1
*END

*D_NET g52530_db 1
*END

*D_NET g52530_sb 1
*END

*D_NET g52531_da 1
*END

*D_NET g52531_db 1
*END

*D_NET g52531_sb 1
*END

*D_NET g52532_da 1
*END

*D_NET g52532_db 1
*END

*D_NET g52532_sb 1
*END

*D_NET g52533_da 1
*END
