*SPEF "IEEE 1481-1998"
*DESIGN "design-name"
*DATE "Mon Feb 13 16:26:15 2012"
*VENDOR "ISPD 2012 Contest"
*PROGRAM "Benchmark Parasitic Generator"
*VERSION "0.0"
*DESIGN_FLOW "NETLIST_TYPE_VERILOG"
*DIVIDER /
*DELIMITER :
*BUS_DELIMITER [ ]
*T_UNIT 1 PS
*C_UNIT 1 FF
*R_UNIT 1 KOHM
*L_UNIT 1 UH


*D_NET decrypt 3
*END

*D_NET desIn_0_ 4
*END

*D_NET desIn_10_ 4
*END

*D_NET desIn_11_ 4
*END

*D_NET desIn_12_ 4
*END

*D_NET desIn_13_ 4
*END

*D_NET desIn_14_ 4
*END

*D_NET desIn_15_ 4
*END

*D_NET desIn_16_ 4
*END

*D_NET desIn_17_ 4
*END

*D_NET desIn_18_ 4
*END

*D_NET desIn_19_ 4
*END

*D_NET desIn_1_ 4
*END

*D_NET desIn_20_ 4
*END

*D_NET desIn_21_ 4
*END

*D_NET desIn_22_ 4
*END

*D_NET desIn_23_ 4
*END

*D_NET desIn_24_ 4
*END

*D_NET desIn_25_ 4
*END

*D_NET desIn_26_ 4
*END

*D_NET desIn_27_ 4
*END

*D_NET desIn_28_ 4
*END

*D_NET desIn_29_ 4
*END

*D_NET desIn_2_ 4
*END

*D_NET desIn_30_ 4
*END

*D_NET desIn_31_ 4
*END

*D_NET desIn_32_ 4
*END

*D_NET desIn_33_ 4
*END

*D_NET desIn_34_ 4
*END

*D_NET desIn_35_ 4
*END

*D_NET desIn_36_ 4
*END

*D_NET desIn_37_ 4
*END

*D_NET desIn_38_ 4
*END

*D_NET desIn_39_ 4
*END

*D_NET desIn_3_ 4
*END

*D_NET desIn_40_ 4
*END

*D_NET desIn_41_ 4
*END

*D_NET desIn_42_ 4
*END

*D_NET desIn_43_ 4
*END

*D_NET desIn_44_ 4
*END

*D_NET desIn_45_ 4
*END

*D_NET desIn_46_ 4
*END

*D_NET desIn_47_ 4
*END

*D_NET desIn_48_ 4
*END

*D_NET desIn_49_ 4
*END

*D_NET desIn_4_ 4
*END

*D_NET desIn_50_ 4
*END

*D_NET desIn_51_ 4
*END

*D_NET desIn_52_ 4
*END

*D_NET desIn_53_ 4
*END

*D_NET desIn_54_ 4
*END

*D_NET desIn_55_ 4
*END

*D_NET desIn_56_ 4
*END

*D_NET desIn_57_ 4
*END

*D_NET desIn_58_ 4
*END

*D_NET desIn_59_ 4
*END

*D_NET desIn_5_ 4
*END

*D_NET desIn_60_ 4
*END

*D_NET desIn_61_ 4
*END

*D_NET desIn_62_ 4
*END

*D_NET desIn_63_ 4
*END

*D_NET desIn_6_ 4
*END

*D_NET desIn_7_ 4
*END

*D_NET desIn_8_ 4
*END

*D_NET desIn_9_ 4
*END

*D_NET ispd_clk 0.0
*END

*D_NET key1_0_ 8
*END

*D_NET key1_10_ 8
*END

*D_NET key1_11_ 8
*END

*D_NET key1_12_ 8
*END

*D_NET key1_13_ 8
*END

*D_NET key1_14_ 8
*END

*D_NET key1_15_ 8
*END

*D_NET key1_16_ 8
*END

*D_NET key1_17_ 8
*END

*D_NET key1_18_ 8
*END

*D_NET key1_19_ 8
*END

*D_NET key1_1_ 8
*END

*D_NET key1_20_ 8
*END

*D_NET key1_21_ 8
*END

*D_NET key1_22_ 8
*END

*D_NET key1_23_ 8
*END

*D_NET key1_24_ 8
*END

*D_NET key1_25_ 8
*END

*D_NET key1_26_ 8
*END

*D_NET key1_27_ 8
*END

*D_NET key1_28_ 8
*END

*D_NET key1_29_ 8
*END

*D_NET key1_2_ 8
*END

*D_NET key1_30_ 8
*END

*D_NET key1_31_ 8
*END

*D_NET key1_32_ 8
*END

*D_NET key1_33_ 8
*END

*D_NET key1_34_ 8
*END

*D_NET key1_35_ 8
*END

*D_NET key1_36_ 8
*END

*D_NET key1_37_ 8
*END

*D_NET key1_38_ 8
*END

*D_NET key1_39_ 8
*END

*D_NET key1_3_ 8
*END

*D_NET key1_40_ 8
*END

*D_NET key1_41_ 8
*END

*D_NET key1_42_ 8
*END

*D_NET key1_43_ 8
*END

*D_NET key1_44_ 8
*END

*D_NET key1_45_ 8
*END

*D_NET key1_46_ 8
*END

*D_NET key1_47_ 8
*END

*D_NET key1_48_ 8
*END

*D_NET key1_49_ 8
*END

*D_NET key1_4_ 8
*END

*D_NET key1_50_ 8
*END

*D_NET key1_51_ 8
*END

*D_NET key1_52_ 8
*END

*D_NET key1_53_ 8
*END

*D_NET key1_54_ 8
*END

*D_NET key1_55_ 8
*END

*D_NET key1_5_ 8
*END

*D_NET key1_6_ 8
*END

*D_NET key1_7_ 8
*END

*D_NET key1_8_ 8
*END

*D_NET key1_9_ 8
*END

*D_NET key2_0_ 4
*END

*D_NET key2_10_ 4
*END

*D_NET key2_11_ 4
*END

*D_NET key2_12_ 4
*END

*D_NET key2_13_ 4
*END

*D_NET key2_14_ 4
*END

*D_NET key2_15_ 4
*END

*D_NET key2_16_ 4
*END

*D_NET key2_17_ 4
*END

*D_NET key2_18_ 4
*END

*D_NET key2_19_ 4
*END

*D_NET key2_1_ 4
*END

*D_NET key2_20_ 4
*END

*D_NET key2_21_ 4
*END

*D_NET key2_22_ 4
*END

*D_NET key2_23_ 4
*END

*D_NET key2_24_ 4
*END

*D_NET key2_25_ 4
*END

*D_NET key2_26_ 4
*END

*D_NET key2_27_ 4
*END

*D_NET key2_28_ 4
*END

*D_NET key2_29_ 4
*END

*D_NET key2_2_ 4
*END

*D_NET key2_30_ 4
*END

*D_NET key2_31_ 4
*END

*D_NET key2_32_ 4
*END

*D_NET key2_33_ 4
*END

*D_NET key2_34_ 4
*END

*D_NET key2_35_ 4
*END

*D_NET key2_36_ 4
*END

*D_NET key2_37_ 4
*END

*D_NET key2_38_ 4
*END

*D_NET key2_39_ 4
*END

*D_NET key2_3_ 4
*END

*D_NET key2_40_ 4
*END

*D_NET key2_41_ 4
*END

*D_NET key2_42_ 4
*END

*D_NET key2_43_ 4
*END

*D_NET key2_44_ 4
*END

*D_NET key2_45_ 4
*END

*D_NET key2_46_ 4
*END

*D_NET key2_47_ 4
*END

*D_NET key2_48_ 4
*END

*D_NET key2_49_ 4
*END

*D_NET key2_4_ 4
*END

*D_NET key2_50_ 4
*END

*D_NET key2_51_ 4
*END

*D_NET key2_52_ 4
*END

*D_NET key2_53_ 4
*END

*D_NET key2_54_ 4
*END

*D_NET key2_55_ 4
*END

*D_NET key2_5_ 4
*END

*D_NET key2_6_ 4
*END

*D_NET key2_7_ 4
*END

*D_NET key2_8_ 4
*END

*D_NET key2_9_ 4
*END

*D_NET key3_0_ 8
*END

*D_NET key3_10_ 8
*END

*D_NET key3_11_ 8
*END

*D_NET key3_12_ 8
*END

*D_NET key3_13_ 8
*END

*D_NET key3_14_ 8
*END

*D_NET key3_15_ 8
*END

*D_NET key3_16_ 8
*END

*D_NET key3_17_ 8
*END

*D_NET key3_18_ 8
*END

*D_NET key3_19_ 8
*END

*D_NET key3_1_ 8
*END

*D_NET key3_20_ 8
*END

*D_NET key3_21_ 8
*END

*D_NET key3_22_ 8
*END

*D_NET key3_23_ 8
*END

*D_NET key3_24_ 8
*END

*D_NET key3_25_ 8
*END

*D_NET key3_26_ 8
*END

*D_NET key3_27_ 8
*END

*D_NET key3_28_ 8
*END

*D_NET key3_29_ 8
*END

*D_NET key3_2_ 8
*END

*D_NET key3_30_ 8
*END

*D_NET key3_31_ 8
*END

*D_NET key3_32_ 8
*END

*D_NET key3_33_ 8
*END

*D_NET key3_34_ 8
*END

*D_NET key3_35_ 8
*END

*D_NET key3_36_ 8
*END

*D_NET key3_37_ 8
*END

*D_NET key3_38_ 8
*END

*D_NET key3_39_ 8
*END

*D_NET key3_3_ 8
*END

*D_NET key3_40_ 8
*END

*D_NET key3_41_ 8
*END

*D_NET key3_42_ 8
*END

*D_NET key3_43_ 8
*END

*D_NET key3_44_ 8
*END

*D_NET key3_45_ 8
*END

*D_NET key3_46_ 8
*END

*D_NET key3_47_ 8
*END

*D_NET key3_48_ 8
*END

*D_NET key3_49_ 8
*END

*D_NET key3_4_ 8
*END

*D_NET key3_50_ 8
*END

*D_NET key3_51_ 8
*END

*D_NET key3_52_ 8
*END

*D_NET key3_53_ 8
*END

*D_NET key3_54_ 8
*END

*D_NET key3_55_ 8
*END

*D_NET key3_5_ 8
*END

*D_NET key3_6_ 8
*END

*D_NET key3_7_ 8
*END

*D_NET key3_8_ 8
*END

*D_NET key3_9_ 8
*END

*D_NET desOut_0_ 4
*END

*D_NET desOut_10_ 4
*END

*D_NET desOut_11_ 4
*END

*D_NET desOut_12_ 4
*END

*D_NET desOut_13_ 4
*END

*D_NET desOut_14_ 4
*END

*D_NET desOut_15_ 4
*END

*D_NET desOut_16_ 4
*END

*D_NET desOut_17_ 4
*END

*D_NET desOut_18_ 4
*END

*D_NET desOut_19_ 4
*END

*D_NET desOut_1_ 4
*END

*D_NET desOut_20_ 4
*END

*D_NET desOut_21_ 4
*END

*D_NET desOut_22_ 4
*END

*D_NET desOut_23_ 4
*END

*D_NET desOut_24_ 4
*END

*D_NET desOut_25_ 4
*END

*D_NET desOut_26_ 4
*END

*D_NET desOut_27_ 4
*END

*D_NET desOut_28_ 4
*END

*D_NET desOut_29_ 4
*END

*D_NET desOut_2_ 4
*END

*D_NET desOut_30_ 4
*END

*D_NET desOut_31_ 4
*END

*D_NET desOut_32_ 4
*END

*D_NET desOut_33_ 4
*END

*D_NET desOut_34_ 4
*END

*D_NET desOut_35_ 4
*END

*D_NET desOut_36_ 4
*END

*D_NET desOut_37_ 4
*END

*D_NET desOut_38_ 4
*END

*D_NET desOut_39_ 4
*END

*D_NET desOut_3_ 4
*END

*D_NET desOut_40_ 4
*END

*D_NET desOut_41_ 4
*END

*D_NET desOut_42_ 4
*END

*D_NET desOut_43_ 4
*END

*D_NET desOut_44_ 4
*END

*D_NET desOut_45_ 4
*END

*D_NET desOut_46_ 4
*END

*D_NET desOut_47_ 4
*END

*D_NET desOut_48_ 4
*END

*D_NET desOut_49_ 4
*END

*D_NET desOut_4_ 4
*END

*D_NET desOut_50_ 4
*END

*D_NET desOut_51_ 4
*END

*D_NET desOut_52_ 4
*END

*D_NET desOut_53_ 4
*END

*D_NET desOut_54_ 4
*END

*D_NET desOut_55_ 4
*END

*D_NET desOut_56_ 4
*END

*D_NET desOut_57_ 4
*END

*D_NET desOut_58_ 4
*END

*D_NET desOut_59_ 4
*END

*D_NET desOut_5_ 4
*END

*D_NET desOut_60_ 4
*END

*D_NET desOut_61_ 4
*END

*D_NET desOut_62_ 4
*END

*D_NET desOut_63_ 4
*END

*D_NET desOut_6_ 4
*END

*D_NET desOut_7_ 4
*END

*D_NET desOut_8_ 4
*END

*D_NET desOut_9_ 4
*END

*D_NET g190258_u0_o 1
*END

*D_NET g190259_u0_o 4
*END

*D_NET g190264_u0_o 4
*END

*D_NET g190265_u0_o 1
*END

*D_NET g190266_u0_o 1
*END

*D_NET g190268_u0_o 4
*END

*D_NET g190271_u0_o 4
*END

*D_NET g190272_u0_o 4
*END

*D_NET g190273_u0_o 4
*END

*D_NET g190276_u0_o 1
*END

*D_NET g190277_u0_o 1
*END

*D_NET g190278_u0_o 4
*END

*D_NET g190280_u0_o 4
*END

*D_NET g190281_u0_o 1
*END

*D_NET g190282_u1_o 4
*END

*D_NET g190283_u0_o 1
*END

*D_NET g190284_u0_o 4
*END

*D_NET g190285_u0_o 1
*END

*D_NET g190286_u0_o 4
*END

*D_NET g190288_u0_o 4
*END

*D_NET g190292_u0_o 1
*END

*D_NET g190293_u0_o 4
*END

*D_NET g190297_u0_o 1
*END

*D_NET g190298_u0_o 1
*END

*D_NET g190299_u0_o 4
*END

*D_NET g190304_u0_o 1
*END

*D_NET g190305_u0_o 4
*END

*D_NET g190309_u0_o 4
*END

*D_NET g190317_u0_o 1
*END

*D_NET g190320_u0_o 4
*END

*D_NET g220989_u0_o 4
*END

*D_NET g221030_u0_o 4
*END

*D_NET g221036_u0_o 4
*END

*D_NET g221041_u0_o 4
*END

*D_NET g221043_u0_o 1
*END

*D_NET g221044_u0_o 1
*END

*D_NET g221045_u1_o 4
*END

*D_NET g221046_u0_o 4
*END

*D_NET g221049_u0_o 4
*END

*D_NET g221050_u0_o 4
*END

*D_NET g221053_u1_o 4
*END

*D_NET g221064_u0_o 1
*END

*D_NET g221065_u0_o 1
*END

*D_NET g221066_u0_o 4
*END

*D_NET g221076_u0_o 4
*END

*D_NET g221080_u0_o 1
*END

*D_NET g221087_u0_o 4
*END

*D_NET g221089_u0_o 4
*END

*D_NET g221093_u0_o 4
*END

*D_NET g221094_u0_o 4
*END

*D_NET g221117_u0_o 4
*END

*D_NET g221135_u0_o 1
*END

*D_NET g221140_u0_o 4
*END

*D_NET g221146_u0_o 4
*END

*D_NET g221177_u0_o 4
*END

*D_NET g221183_u0_o 1
*END

*D_NET g253423_u0_o 1
*END

*D_NET g253429_u0_o 1
*END

*D_NET g253443_u0_o 4
*END

*D_NET g253452_u0_o 4
*END

*D_NET g253453_u1_o 1
*END

*D_NET g253454_u0_o 4
*END

*D_NET g253463_u0_o 4
*END

*D_NET g253466_u0_o 1
*END

*D_NET g253482_u0_o 1
*END

*D_NET g253486_u0_o 4
*END

*D_NET g253488_u0_o 1
*END

*D_NET g253492_u0_o 4
*END

*D_NET g253493_u0_o 4
*END

*D_NET g253494_u0_o 4
*END

*D_NET g253503_u0_o 1
*END

*D_NET g253507_u0_o 4
*END

*D_NET g253512_u0_o 1
*END

*D_NET g253526_u0_o 4
*END

*D_NET g253543_u0_o 4
*END

*D_NET g253544_u0_o 4
*END

*D_NET g190282_p 4
*END

*D_NET g190307_p1 4
*END

*D_NET g190307_p2 4
*END

*D_NET g190312_p1 4
*END

*D_NET g190312_p2 4
*END

*D_NET g190377_p 4
*END

*D_NET g190405_p 4
*END

*D_NET g190420_da 4
*END

*D_NET g190420_db 4
*END

*D_NET g190420_sb 4
*END

*D_NET g190425_da 4
*END

*D_NET g190425_db 4
*END

*D_NET g190425_sb 4
*END

*D_NET g190491_p 4
*END

*D_NET g190496_p 4
*END

*D_NET g190509_p 4
*END

*D_NET g190516_p 4
*END

*D_NET g190521_p 4
*END

*D_NET g190523_p 4
*END

*D_NET g190539_p 4
*END

*D_NET g190546_p 4
*END

*D_NET g190559_da 4
*END

*D_NET g190559_db 4
*END

*D_NET g190559_sb 4
*END

*D_NET g190571_p 4
*END

*D_NET g190578_p 4
*END

*D_NET g190587_p 4
*END

*D_NET g190599_p 4
*END

*D_NET g190603_p 4
*END

*D_NET g190611_p 4
*END

*D_NET g190627_p 4
*END

*D_NET g190630_p 4
*END

*D_NET g190632_p 4
*END

*D_NET g190647_p 4
*END

*D_NET g190649_p 4
*END

*D_NET g190651_p 4
*END

*D_NET g190654_p 4
*END

*D_NET g190655_p 4
*END

*D_NET g190656_p 4
*END

*D_NET g190659_p 4
*END

*D_NET g190663_p 1
*END

*D_NET g190679_p 4
*END

*D_NET g190680_p 4
*END

*D_NET g190682_p 1
*END

*D_NET g190685_p 4
*END

*D_NET g190688_p 1
*END

*D_NET g190689_p 4
*END

*D_NET g190693_p 1
*END

*D_NET g190696_p 4
*END

*D_NET g190699_p 4
*END

*D_NET g190703_p 4
*END

*D_NET g190707_p 4
*END

*D_NET g190715_p 4
*END

*D_NET g190768_p 4
*END

*D_NET g190788_p 4
*END

*D_NET g190795_p 4
*END

*D_NET g190844_p 4
*END

*D_NET g190856_p 4
*END

*D_NET g190892_p 1
*END

*D_NET g190897_p 4
*END

*D_NET g190899_p 4
*END

*D_NET g190901_p 4
*END

*D_NET g190906_p 4
*END

*D_NET g190907_p 4
*END

*D_NET g190908_p 4
*END

*D_NET g190915_p 4
*END

*D_NET g190925_p 4
*END

*D_NET g190927_p 4
*END

*D_NET g190928_p 1
*END

*D_NET g190937_p 4
*END

*D_NET g190939_p 4
*END

*D_NET g190953_p 1
*END

*D_NET g190954_p 4
*END

*D_NET g190976_p 4
*END

*D_NET g190977_p 4
*END

*D_NET g191011_p 4
*END

*D_NET g191098_p 4
*END

*D_NET g191103_p 4
*END

*D_NET g191110_p 4
*END

*D_NET g191115_p 4
*END

*D_NET g191125_p 4
*END

*D_NET g191127_p 4
*END

*D_NET g191131_p 4
*END

*D_NET g191141_p 4
*END

*D_NET g191143_p 4
*END

*D_NET g191163_p 4
*END

*D_NET g191180_da 4
*END

*D_NET g191180_db 1
*END

*D_NET g191180_sb 4
*END

*D_NET g191197_da 4
*END

*D_NET g191197_db 4
*END

*D_NET g191197_sb 4
*END

*D_NET g191253_p 4
*END

*D_NET g191254_p 4
*END

*D_NET g191285_p 4
*END

*D_NET g191288_p 4
*END

*D_NET g191320_p 4
*END

*D_NET g191331_da 4
*END

*D_NET g191331_db 4
*END

*D_NET g191331_sb 4
*END

*D_NET g191340_p 1
*END

*D_NET g191366_da 4
*END

*D_NET g191366_db 4
*END

*D_NET g191366_sb 4
*END

*D_NET g191417_p 1
*END

*D_NET g191465_da 4
*END

*D_NET g191465_db 4
*END

*D_NET g191465_sb 4
*END

*D_NET g191475_p 1
*END

*D_NET g191480_p 1
*END

*D_NET g191488_p 1
*END

*D_NET g191500_p 1
*END

*D_NET g191539_p 1
*END

*D_NET g191578_p 4
*END

*D_NET g191603_da 4
*END

*D_NET g191603_db 4
*END

*D_NET g191603_sb 4
*END

*D_NET g191607_p 1
*END

*D_NET g191642_p 4
*END

*D_NET g191646_p 4
*END

*D_NET g191647_da 4
*END

*D_NET g191647_db 4
*END

*D_NET g191647_sb 4
*END

*D_NET g191648_da 4
*END

*D_NET g191648_db 4
*END

*D_NET g191648_sb 4
*END

*D_NET g191679_da 4
*END

*D_NET g191679_db 1
*END

*D_NET g191679_sb 4
*END

*D_NET g191698_p 1
*END

*D_NET g191717_p 4
*END

*D_NET g191722_p 4
*END

*D_NET g191748_p 4
*END

*D_NET g191764_p 1
*END

*D_NET g191819_da 4
*END

*D_NET g191819_db 4
*END

*D_NET g191819_sb 4
*END

*D_NET g191831_p 1
*END

*D_NET g191837_p 4
*END

*D_NET g191844_p 4
*END

*D_NET g191859_da 4
*END

*D_NET g191859_db 4
*END

*D_NET g191859_sb 4
*END

*D_NET g191864_p 4
*END

*D_NET g191874_p 1
*END

*D_NET g191892_p 4
*END

*D_NET g191933_p1 4
*END

*D_NET g191933_p2 4
*END

*D_NET g191940_da 1
*END

*D_NET g191940_db 4
*END

*D_NET g191940_sb 1
*END

*D_NET g191947_da 1
*END

*D_NET g191947_db 1
*END

*D_NET g191947_sb 1
*END

*D_NET g191951_da 1
*END

*D_NET g191951_db 4
*END

*D_NET g191951_sb 1
*END

*D_NET g191974_da 4
*END

*D_NET g191974_db 4
*END

*D_NET g191974_sb 4
*END

*D_NET g192015_da 1
*END

*D_NET g192015_db 1
*END

*D_NET g192015_sb 1
*END

*D_NET g192016_da 4
*END

*D_NET g192016_db 4
*END

*D_NET g192016_sb 4
*END

*D_NET g192017_da 1
*END

*D_NET g192017_db 1
*END

*D_NET g192017_sb 1
*END

*D_NET g192018_da 1
*END

*D_NET g192018_db 4
*END

*D_NET g192018_sb 1
*END

*D_NET g192019_da 1
*END

*D_NET g192019_db 4
*END

*D_NET g192019_sb 1
*END

*D_NET g192021_da 4
*END

*D_NET g192021_db 4
*END

*D_NET g192021_sb 4
*END

*D_NET g192030_p1 4
*END

*D_NET g192030_p2 4
*END

*D_NET g192084_p1 4
*END

*D_NET g192084_p2 4
*END

*D_NET g192125_p1 4
*END

*D_NET g192125_p2 4
*END

*D_NET g192169_p1 1
*END

*D_NET g192169_p2 1
*END

*D_NET g192266_p 1
*END

*D_NET g192269_p 4
*END

*D_NET g192300_p 4
*END

*D_NET g192335_p 4
*END

*D_NET g192358_p 4
*END

*D_NET g192385_p 1
*END

*D_NET g192388_p 4
*END

*D_NET g192405_p 4
*END

*D_NET g192407_p 4
*END

*D_NET g192412_p 4
*END

*D_NET g192414_p 4
*END

*D_NET g192426_p 4
*END

*D_NET g192429_p 4
*END

*D_NET g192436_p 4
*END

*D_NET g192440_p 4
*END

*D_NET g192446_p 4
*END

*D_NET g192451_p 1
*END

*D_NET g192459_p 4
*END

*D_NET g192465_p 4
*END

*D_NET g192466_p 4
*END

*D_NET g192533_p 4
*END

*D_NET g192544_p 4
*END

*D_NET g192601_p 4
*END

*D_NET g192624_p 4
*END

*D_NET g192629_p 4
*END

*D_NET g192637_p 4
*END

*D_NET g192675_p 4
*END

*D_NET g192681_p 4
*END

*D_NET g192732_p 1
*END

*D_NET g192836_p 4
*END

*D_NET g192840_p 4
*END

*D_NET g192862_p 4
*END

*D_NET g192883_p 4
*END

*D_NET g192893_p 4
*END

*D_NET g192894_p 4
*END

*D_NET g192952_p 4
*END

*D_NET g192953_p 4
*END

*D_NET g192972_p 4
*END

*D_NET g192991_da 4
*END

*D_NET g192991_db 4
*END

*D_NET g192991_sb 4
*END

*D_NET g193007_p 4
*END

*D_NET g193052_p 1
*END

*D_NET g193159_p 4
*END

*D_NET g193189_p 4
*END

*D_NET g193190_p 4
*END

*D_NET g193207_da 4
*END

*D_NET g193207_db 4
*END

*D_NET g193207_sb 4
*END

*D_NET g193223_da 1
*END

*D_NET g193223_db 4
*END

*D_NET g193223_sb 1
*END

*D_NET g193237_p 4
*END

*D_NET g193281_p 4
*END

*D_NET g193285_p 4
*END

*D_NET g193290_p 4
*END

*D_NET g193302_p 1
*END

*D_NET g193331_p 1
*END

*D_NET g193340_da 1
*END

*D_NET g193340_db 1
*END

*D_NET g193340_sb 1
*END

*D_NET g193355_p 4
*END

*D_NET g193387_da 1
*END

*D_NET g193387_db 1
*END

*D_NET g193387_sb 1
*END

*D_NET g193418_p 4
*END

*D_NET g193424_p 4
*END

*D_NET g193428_da 4
*END

*D_NET g193428_db 4
*END

*D_NET g193428_sb 4
*END

*D_NET g193457_da 4
*END

*D_NET g193457_db 4
*END

*D_NET g193457_sb 4
*END

*D_NET g193471_da 1
*END

*D_NET g193471_db 4
*END

*D_NET g193471_sb 1
*END

*D_NET g193496_p 4
*END

*D_NET g193513_da 4
*END

*D_NET g193513_db 4
*END

*D_NET g193513_sb 4
*END

*D_NET g193584_da 4
*END

*D_NET g193584_db 4
*END

*D_NET g193584_sb 4
*END

*D_NET g193594_p 1
*END

*D_NET g193604_p 4
*END

*D_NET g193613_p 1
*END

*D_NET g193630_da 1
*END

*D_NET g193630_db 4
*END

*D_NET g193630_sb 1
*END

*D_NET g193639_p 1
*END

*D_NET g193645_p 4
*END

*D_NET g193660_p 1
*END

*D_NET g193715_p 4
*END

*D_NET g193717_p 4
*END

*D_NET g193735_da 4
*END

*D_NET g193735_db 1
*END

*D_NET g193735_sb 4
*END

*D_NET g193752_da 4
*END

*D_NET g193752_db 4
*END

*D_NET g193752_sb 4
*END

*D_NET g193759_da 1
*END

*D_NET g193759_db 4
*END

*D_NET g193759_sb 1
*END

*D_NET g193804_p 4
*END

*D_NET g193817_da 4
*END

*D_NET g193817_db 4
*END

*D_NET g193817_sb 4
*END

*D_NET g193870_p1 4
*END

*D_NET g193870_p2 4
*END

*D_NET g193874_p 4
*END

*D_NET g193880_da 1
*END

*D_NET g193880_db 4
*END

*D_NET g193880_sb 1
*END

*D_NET g193922_da 4
*END

*D_NET g193922_db 4
*END

*D_NET g193922_sb 4
*END

*D_NET g193955_da 4
*END

*D_NET g193955_db 4
*END

*D_NET g193955_sb 4
*END

*D_NET g194000_da 4
*END

*D_NET g194000_db 4
*END

*D_NET g194000_sb 4
*END

*D_NET g194055_da 4
*END

*D_NET g194055_db 4
*END

*D_NET g194055_sb 4
*END

*D_NET g194056_da 4
*END

*D_NET g194056_db 4
*END

*D_NET g194056_sb 4
*END

*D_NET g194067_p 4
*END

*D_NET g194068_p1 4
*END

*D_NET g194068_p2 4
*END

*D_NET g194124_p1 4
*END

*D_NET g194124_p2 4
*END

*D_NET g194139_p1 1
*END

*D_NET g194139_p2 4
*END

*D_NET g194289_p 4
*END

*D_NET g194330_da 4
*END

*D_NET g194330_db 4
*END

*D_NET g194330_sb 4
*END

*D_NET g194333_p 4
*END

*D_NET g194340_p 4
*END

*D_NET g194341_p 4
*END

*D_NET g194374_p 4
*END

*D_NET g194379_p 4
*END

*D_NET g194388_p 4
*END

*D_NET g194397_p 4
*END

*D_NET g194415_p 4
*END

*D_NET g194424_p 4
*END

*D_NET g194448_p 4
*END

*D_NET g194464_p 4
*END

*D_NET g194466_p 4
*END

*D_NET g194482_p 4
*END

*D_NET g194495_p 4
*END

*D_NET g194496_p 4
*END

*D_NET g194497_p 4
*END

*D_NET g194513_p 4
*END

*D_NET g194516_p 4
*END

*D_NET g194528_p 4
*END

*D_NET g194545_p 4
*END

*D_NET g194547_p 4
*END

*D_NET g194549_p 4
*END

*D_NET g194555_p 4
*END

*D_NET g194562_p 4
*END

*D_NET g194570_p 4
*END

*D_NET g194579_p 4
*END

*D_NET g194580_p 4
*END

*D_NET g194626_p 4
*END

*D_NET g194705_p 4
*END

*D_NET g194734_p 4
*END

*D_NET g194741_p 4
*END

*D_NET g194759_p 4
*END

*D_NET g194762_p 4
*END

*D_NET g194792_p 4
*END

*D_NET g194795_p 4
*END

*D_NET g194819_p 4
*END

*D_NET g194824_p 4
*END

*D_NET g194828_p 4
*END

*D_NET g194830_p 4
*END

*D_NET g194845_p 1
*END

*D_NET g194878_p 4
*END

*D_NET g194895_p 1
*END

*D_NET g194992_p 4
*END

*D_NET g195017_p 4
*END

*D_NET g195018_p 4
*END

*D_NET g195026_p 4
*END

*D_NET g195046_p 4
*END

*D_NET g195053_p 4
*END

*D_NET g195054_p 4
*END

*D_NET g195063_p 1
*END

*D_NET g195069_p 4
*END

*D_NET g195104_p 4
*END

*D_NET g195109_p 4
*END

*D_NET g195110_p 4
*END

*D_NET g195129_da 1
*END

*D_NET g195129_db 4
*END

*D_NET g195129_sb 1
*END

*D_NET g195141_da 4
*END

*D_NET g195141_db 4
*END

*D_NET g195141_sb 4
*END

*D_NET g195175_p 4
*END

*D_NET g195182_p 1
*END

*D_NET g195236_p 4
*END

*D_NET g195260_p 4
*END

*D_NET g195271_p 4
*END

*D_NET g195276_p 4
*END

*D_NET g195278_p 1
*END

*D_NET g195280_p 4
*END

*D_NET g195316_da 4
*END

*D_NET g195316_db 4
*END

*D_NET g195316_sb 4
*END

*D_NET g195328_p 4
*END

*D_NET g195348_p 4
*END

*D_NET g195349_p 4
*END

*D_NET g195371_p 4
*END

*D_NET g195373_p 4
*END

*D_NET g195391_da 1
*END

*D_NET g195391_db 4
*END

*D_NET g195391_sb 1
*END

*D_NET g195407_da 1
*END

*D_NET g195407_db 1
*END

*D_NET g195407_sb 1
*END

*D_NET g195428_p 1
*END

*D_NET g195441_p 1
*END

*D_NET g195449_p 4
*END

*D_NET g195505_da 4
*END

*D_NET g195505_db 4
*END

*D_NET g195505_sb 4
*END

*D_NET g195520_p 1
*END

*D_NET g195541_p 4
*END

*D_NET g195551_p 4
*END

*D_NET g195563_p 1
*END

*D_NET g195582_da 1
*END

*D_NET g195582_db 4
*END

*D_NET g195582_sb 1
*END

*D_NET g195588_p 1
*END

*D_NET g195605_da 4
*END

*D_NET g195605_db 4
*END

*D_NET g195605_sb 4
*END

*D_NET g195618_p 1
*END

*D_NET g195666_p 4
*END

*D_NET g195670_p 4
*END

*D_NET g195672_da 1
*END

*D_NET g195672_db 4
*END

*D_NET g195672_sb 1
*END

*D_NET g195702_da 4
*END

*D_NET g195702_db 4
*END

*D_NET g195702_sb 4
*END

*D_NET g195714_da 4
*END

*D_NET g195714_db 4
*END

*D_NET g195714_sb 4
*END

*D_NET g195728_da 4
*END

*D_NET g195728_db 4
*END

*D_NET g195728_sb 4
*END

*D_NET g195745_da 4
*END

*D_NET g195745_db 4
*END

*D_NET g195745_sb 4
*END

*D_NET g195763_da 1
*END

*D_NET g195763_db 1
*END

*D_NET g195763_sb 1
*END

*D_NET g195775_p 1
*END

*D_NET g195783_da 1
*END

*D_NET g195783_db 1
*END

*D_NET g195783_sb 1
*END

*D_NET g195793_p 1
*END

*D_NET g195865_p 4
*END

*D_NET g195867_p 4
*END

*D_NET g195879_p 4
*END

*D_NET g195897_p 1
*END

*D_NET g195929_da 1
*END

*D_NET g195929_db 4
*END

*D_NET g195929_sb 1
*END

*D_NET g195956_da 4
*END

*D_NET g195956_db 4
*END

*D_NET g195956_sb 4
*END

*D_NET g195999_p1 4
*END

*D_NET g195999_p2 1
*END

*D_NET g196019_da 4
*END

*D_NET g196019_db 4
*END

*D_NET g196019_sb 4
*END

*D_NET g196043_da 1
*END

*D_NET g196043_db 1
*END

*D_NET g196043_sb 1
*END

*D_NET g196096_da 1
*END

*D_NET g196096_db 4
*END

*D_NET g196096_sb 1
*END

*D_NET g196100_da 4
*END

*D_NET g196100_db 4
*END

*D_NET g196100_sb 4
*END

*D_NET g196115_p1 4
*END

*D_NET g196115_p2 4
*END

*D_NET g196145_p 4
*END

*D_NET g196173_p1 1
*END

*D_NET g196173_p2 4
*END

*D_NET g196218_p1 4
*END

*D_NET g196218_p2 4
*END

*D_NET g196360_p 4
*END

*D_NET g196430_p 4
*END

*D_NET g196445_da 4
*END

*D_NET g196445_db 4
*END

*D_NET g196445_sb 4
*END

*D_NET g196453_p 4
*END

*D_NET g196456_p 4
*END

*D_NET g196458_p 1
*END

*D_NET g196478_p 4
*END

*D_NET g196480_p 4
*END

*D_NET g196498_p 4
*END

*D_NET g196499_p 4
*END

*D_NET g196500_p 4
*END

*D_NET g196503_p 4
*END

*D_NET g196505_p 4
*END

*D_NET g196508_p 4
*END

*D_NET g196516_p 4
*END

*D_NET g196520_p 4
*END

*D_NET g196531_p 4
*END

*D_NET g196533_p 4
*END

*D_NET g196537_p 4
*END

*D_NET g196542_p 4
*END

*D_NET g196550_p 4
*END

*D_NET g196560_p 4
*END

*D_NET g196561_p 4
*END

*D_NET g196574_p 4
*END

*D_NET g196598_p 4
*END

*D_NET g196641_p 4
*END

*D_NET g196687_p 4
*END

*D_NET g196690_p 4
*END

*D_NET g196699_p 4
*END

*D_NET g196721_p 4
*END

*D_NET g196734_p 4
*END

*D_NET g196737_p 4
*END

*D_NET g196758_p 4
*END

*D_NET g196763_p 4
*END

*D_NET g196768_p 4
*END

*D_NET g196770_p 4
*END

*D_NET g196774_p 4
*END

*D_NET g196783_p 4
*END

*D_NET g196826_p 4
*END

*D_NET g196897_p 4
*END

*D_NET g196928_p 4
*END

*D_NET g196935_p 4
*END

*D_NET g196958_p 4
*END

*D_NET g196966_p 4
*END

*D_NET g196978_p 4
*END

*D_NET g196989_p 4
*END

*D_NET g196998_p 4
*END

*D_NET g197003_p 4
*END

*D_NET g197021_p 4
*END

*D_NET g197031_p 4
*END

*D_NET g197052_p 4
*END

*D_NET g197070_p 4
*END

*D_NET g197089_da 4
*END

*D_NET g197089_db 4
*END

*D_NET g197089_sb 4
*END

*D_NET g197105_p 4
*END

*D_NET g197138_p 4
*END

*D_NET g197146_p 4
*END

*D_NET g197219_p 4
*END

*D_NET g197231_p 4
*END

*D_NET g197249_p 4
*END

*D_NET g197267_p 4
*END

*D_NET g197278_p 4
*END

*D_NET g197279_p 4
*END

*D_NET g197294_da 4
*END

*D_NET g197294_db 4
*END

*D_NET g197294_sb 4
*END

*D_NET g197306_da 4
*END

*D_NET g197306_db 4
*END

*D_NET g197306_sb 4
*END

*D_NET g197320_p 4
*END

*D_NET g197355_p 4
*END

*D_NET g197364_p 4
*END

*D_NET g197373_p 4
*END

*D_NET g197375_p 4
*END

*D_NET g197376_p 4
*END

*D_NET g197387_p 1
*END

*D_NET g197420_p 4
*END

*D_NET g197428_da 1
*END

*D_NET g197428_db 4
*END

*D_NET g197428_sb 1
*END

*D_NET g197439_p 4
*END

*D_NET g197471_da 4
*END

*D_NET g197471_db 4
*END

*D_NET g197471_sb 4
*END

*D_NET g197483_p 4
*END

*D_NET g197512_p 4
*END

*D_NET g197516_p 4
*END

*D_NET g197520_da 1
*END

*D_NET g197520_db 4
*END

*D_NET g197520_sb 1
*END

*D_NET g197550_da 1
*END

*D_NET g197550_db 4
*END

*D_NET g197550_sb 1
*END

*D_NET g197578_da 1
*END

*D_NET g197578_db 4
*END

*D_NET g197578_sb 1
*END

*D_NET g197591_p 1
*END

*D_NET g197599_p 4
*END

*D_NET g197616_da 4
*END

*D_NET g197616_db 4
*END

*D_NET g197616_sb 4
*END

*D_NET g197688_da 1
*END

*D_NET g197688_db 1
*END

*D_NET g197688_sb 1
*END

*D_NET g197697_da 4
*END

*D_NET g197697_db 4
*END

*D_NET g197697_sb 4
*END

*D_NET g197708_p 1
*END

*D_NET g197715_p 4
*END

*D_NET g197734_da 4
*END

*D_NET g197734_db 4
*END

*D_NET g197734_sb 4
*END

*D_NET g197742_da 4
*END

*D_NET g197742_db 4
*END

*D_NET g197742_sb 4
*END

*D_NET g197748_p 4
*END

*D_NET g197761_p 1
*END

*D_NET g197816_p 4
*END

*D_NET g197818_p 4
*END

*D_NET g197833_da 4
*END

*D_NET g197833_db 4
*END

*D_NET g197833_sb 4
*END

*D_NET g197853_da 4
*END

*D_NET g197853_db 4
*END

*D_NET g197853_sb 4
*END

*D_NET g197860_da 4
*END

*D_NET g197860_db 4
*END

*D_NET g197860_sb 4
*END

*D_NET g197879_da 4
*END

*D_NET g197879_db 4
*END

*D_NET g197879_sb 4
*END

*D_NET g197906_p 1
*END

*D_NET g197922_da 4
*END

*D_NET g197922_db 4
*END

*D_NET g197922_sb 4
*END

*D_NET g197990_p1 1
*END

*D_NET g197990_p2 1
*END

*D_NET g197997_da 1
*END

*D_NET g197997_db 1
*END

*D_NET g197997_sb 1
*END

*D_NET g198005_p 4
*END

*D_NET g198009_p 4
*END

*D_NET g198041_da 4
*END

*D_NET g198041_db 4
*END

*D_NET g198041_sb 4
*END

*D_NET g198134_da 1
*END

*D_NET g198134_db 4
*END

*D_NET g198134_sb 1
*END

*D_NET g198183_da 4
*END

*D_NET g198183_db 4
*END

*D_NET g198183_sb 4
*END

*D_NET g198191_p 4
*END

*D_NET g198192_p1 4
*END

*D_NET g198192_p2 1
*END

*D_NET g198261_p1 1
*END

*D_NET g198261_p2 4
*END

*D_NET g198265_p1 4
*END

*D_NET g198265_p2 4
*END

*D_NET g198458_da 4
*END

*D_NET g198458_db 4
*END

*D_NET g198458_sb 4
*END

*D_NET g198462_p 4
*END

*D_NET g198463_p 4
*END

*D_NET g198483_p 4
*END

*D_NET g198490_p 4
*END

*D_NET g198495_p 4
*END

*D_NET g198504_p 4
*END

*D_NET g198513_p 4
*END

*D_NET g198548_p 4
*END

*D_NET g198561_p 4
*END

*D_NET g198586_p 4
*END

*D_NET g198588_p 4
*END

*D_NET g198594_p 4
*END

*D_NET g198605_p 4
*END

*D_NET g198609_p 4
*END

*D_NET g198620_p 4
*END

*D_NET g198641_p 4
*END

*D_NET g198643_p 4
*END

*D_NET g198647_p 4
*END

*D_NET g198656_p 4
*END

*D_NET g198664_p 4
*END

*D_NET g198673_p 4
*END

*D_NET g198674_p 4
*END

*D_NET g198697_p 4
*END

*D_NET g198710_p 4
*END

*D_NET g198711_p 4
*END

*D_NET g198712_p 4
*END

*D_NET g198762_p 4
*END

*D_NET g198785_p 4
*END

*D_NET g198787_p 4
*END

*D_NET g198807_p 4
*END

*D_NET g198818_p 4
*END

*D_NET g198819_p 1
*END

*D_NET g198846_p 4
*END

*D_NET g198851_p 1
*END

*D_NET g198855_p 4
*END

*D_NET g198857_p 4
*END

*D_NET g198872_p 4
*END

*D_NET g198949_p 4
*END

*D_NET g198978_p 4
*END

*D_NET g198984_p 4
*END

*D_NET g199005_p 4
*END

*D_NET g199021_p 4
*END

*D_NET g199022_p 4
*END

*D_NET g199030_p 4
*END

*D_NET g199049_p 4
*END

*D_NET g199055_p 4
*END

*D_NET g199056_p 4
*END

*D_NET g199065_p 4
*END

*D_NET g199071_p 4
*END

*D_NET g199107_p 4
*END

*D_NET g199120_p 4
*END

*D_NET g199214_p 4
*END

*D_NET g199238_p 4
*END

*D_NET g199239_p 4
*END

*D_NET g199259_da 4
*END

*D_NET g199259_db 4
*END

*D_NET g199259_sb 4
*END

*D_NET g199273_da 4
*END

*D_NET g199273_db 4
*END

*D_NET g199273_sb 4
*END

*D_NET g199280_p 4
*END

*D_NET g199304_p 4
*END

*D_NET g199315_p 4
*END

*D_NET g199320_p 4
*END

*D_NET g199322_p 4
*END

*D_NET g199324_p 4
*END

*D_NET g199353_p 4
*END

*D_NET g199360_p 4
*END

*D_NET g199422_p 1
*END

*D_NET g199432_da 1
*END

*D_NET g199432_db 4
*END

*D_NET g199432_sb 1
*END

*D_NET g199444_p 1
*END

*D_NET g199459_da 4
*END

*D_NET g199459_db 1
*END

*D_NET g199459_sb 4
*END

*D_NET g199474_p 1
*END

*D_NET g199479_p 4
*END

*D_NET g199481_p 4
*END

*D_NET g199483_p 4
*END

*D_NET g199524_da 4
*END

*D_NET g199524_db 4
*END

*D_NET g199524_sb 4
*END

*D_NET g199540_da 4
*END

*D_NET g199540_db 4
*END

*D_NET g199540_sb 4
*END

*D_NET g199559_p 4
*END

*D_NET g199579_p 1
*END

*D_NET g199602_da 1
*END

*D_NET g199602_db 4
*END

*D_NET g199602_sb 1
*END

*D_NET g199626_p 1
*END

*D_NET g199655_p 1
*END

*D_NET g199662_da 4
*END

*D_NET g199662_db 4
*END

*D_NET g199662_sb 4
*END

*D_NET g199672_p 4
*END

*D_NET g199681_da 4
*END

*D_NET g199681_db 4
*END

*D_NET g199681_sb 4
*END

*D_NET g199686_da 4
*END

*D_NET g199686_db 4
*END

*D_NET g199686_sb 4
*END

*D_NET g199707_da 4
*END

*D_NET g199707_db 4
*END

*D_NET g199707_sb 4
*END

*D_NET g199713_p 4
*END

*D_NET g199730_da 1
*END

*D_NET g199730_db 4
*END

*D_NET g199730_sb 1
*END

*D_NET g199743_p 1
*END

*D_NET g199780_p 4
*END

*D_NET g199789_p 1
*END

*D_NET g199795_da 1
*END

*D_NET g199795_db 4
*END

*D_NET g199795_sb 1
*END

*D_NET g199808_p 4
*END

*D_NET g199825_da 4
*END

*D_NET g199825_db 4
*END

*D_NET g199825_sb 4
*END

*D_NET g199850_da 4
*END

*D_NET g199850_db 4
*END

*D_NET g199850_sb 4
*END

*D_NET g199867_da 4
*END

*D_NET g199867_db 4
*END

*D_NET g199867_sb 4
*END

*D_NET g199885_da 1
*END

*D_NET g199885_db 1
*END

*D_NET g199885_sb 1
*END

*D_NET g199897_p 4
*END

*D_NET g199902_da 4
*END

*D_NET g199902_db 4
*END

*D_NET g199902_sb 4
*END

*D_NET g199913_p 1
*END

*D_NET g199985_p 4
*END

*D_NET g199987_p 4
*END

*D_NET g200005_da 4
*END

*D_NET g200005_db 4
*END

*D_NET g200005_sb 4
*END

*D_NET g200013_p 4
*END

*D_NET g200017_p 4
*END

*D_NET g200032_p 1
*END

*D_NET g200039_da 1
*END

*D_NET g200039_db 4
*END

*D_NET g200039_sb 1
*END

*D_NET g200060_da 4
*END

*D_NET g200060_db 4
*END

*D_NET g200060_sb 4
*END

*D_NET g200078_da 4
*END

*D_NET g200078_db 4
*END

*D_NET g200078_sb 4
*END
